
OS:Version,
  {d4739249-6336-49ae-96a0-2ca0e8eee69e}, !- Handle
  3.7.0;                                  !- Version Identifier

OS:Schedule:Constant,
  {9db2c70f-23d5-4794-b84a-94777b317743}, !- Handle
  Always On Discrete,                     !- Name
  {68b32c42-9e21-4594-a549-73d4ef27852b}, !- Schedule Type Limits Name
  1;                                      !- Value

OS:ScheduleTypeLimits,
  {68b32c42-9e21-4594-a549-73d4ef27852b}, !- Handle
  Always On Discrete Limits,              !- Name
  0,                                      !- Lower Limit Value
  1,                                      !- Upper Limit Value
  Discrete,                               !- Numeric Type
  Availability;                           !- Unit Type

OS:ClimateZones,
  {8a3ac41c-57d4-48e4-a48e-1f232e262211}, !- Handle
  ASHRAE,                                 !- Climate Zone Institution Name 1
  ANSI/ASHRAE Standard 169,               !- Climate Zone Document Name 1
  2006,                                   !- Climate Zone Document Year 1
  6A,                                     !- Climate Zone Value 1
  CEC,                                    !- Climate Zone Institution Name 2
  California Climate Zone Descriptions,   !- Climate Zone Document Name 2
  1995,                                   !- Climate Zone Document Year 2
  ;                                       !- Climate Zone Value 2

OS:LifeCycleCost:Parameters,
  {1d4d0f18-e6dd-45c8-896c-f4f2a89e6ae5}, !- Handle
  FEMP,                                   !- Analysis Type
  ,                                       !- Discounting Convention
  ,                                       !- Inflation Approach
  ,                                       !- Real Discount Rate
  ,                                       !- Nominal Discount Rate
  ,                                       !- Inflation
  ,                                       !- Base Date Month
  ,                                       !- Base Date Year
  ,                                       !- Service Date Month
  ,                                       !- Service Date Year
  ,                                       !- Length of Study Period in Years
  ,                                       !- Tax Rate
  ,                                       !- Depreciation Method
  Yes;                                    !- Use NIST Fuel Escalation Rates

OS:YearDescription,
  {c1349a5a-d7e1-4ed9-8e5b-24480649c25c}, !- Handle
  ,                                       !- Calendar Year
  Sunday;                                 !- Day of Week for Start Day

OS:RadianceParameters,
  {8297fd56-36de-4b79-a182-b7636f4ae3e3}, !- Handle
  1,                                      !- Accumulated Rays per Record
  0,                                      !- Direct Threshold
  1,                                      !- Direct Certainty
  1,                                      !- Direct Jitter
  1,                                      !- Direct Pretest
  6,                                      !- Ambient Bounces VMX
  2,                                      !- Ambient Bounces DMX
  4050,                                   !- Ambient Divisions VMX
  512,                                    !- Ambient Divisions DMX
  256,                                    !- Ambient Supersamples
  0.001,                                  !- Limit Weight VMX
  0.001,                                  !- Limit Weight DMX
  500,                                    !- Klems Sampling Density
  146;                                    !- Sky Discretization Resolution

OS:SimulationControl,
  {7c57f4fc-548f-44e7-a438-1feca6a75629}; !- Handle

OS:Sizing:Parameters,
  {ee365675-827e-489e-9a24-0f596988dec4}, !- Handle
  1.25,                                   !- Heating Sizing Factor
  1.15;                                   !- Cooling Sizing Factor

OS:ProgramControl,
  {8a7b938e-cdcb-40af-82b1-79c267c36bae}; !- Handle

OS:Timestep,
  {31824a36-2f0f-4919-a534-cdb00e20d2e0}, !- Handle
  6;                                      !- Number of Timesteps per Hour

OS:OutputControl:ReportingTolerances,
  {275082a5-6cfd-4756-972e-8810ab253e29}; !- Handle

OS:ConvergenceLimits,
  {fcca1605-8471-4f2f-a485-a59582311771}; !- Handle

OS:ShadowCalculation,
  {d875de65-75c7-4d9d-883e-07bd79421b67}, !- Handle
  PolygonClipping,                        !- Shading Calculation Method
  ,                                       !- Shading Calculation Update Frequency Method
  7,                                      !- Shading Calculation Update Frequency
  15000,                                  !- Maximum Figures in Shadow Overlap Calculations
  ,                                       !- Polygon Clipping Algorithm
  512,                                    !- Pixel Counting Resolution
  ,                                       !- Sky Diffuse Modeling Algorithm
  No,                                     !- Output External Shading Calculation Results
  No,                                     !- Disable Self-Shading Within Shading Zone Groups
  No;                                     !- Disable Self-Shading From Shading Zone Groups to Other Zones

OS:SurfaceConvectionAlgorithm:Inside,
  {5add9a33-b760-4e82-a0f9-3ae0e369b9c4}, !- Handle
  TARP;                                   !- Algorithm

OS:SurfaceConvectionAlgorithm:Outside,
  {0257be16-14fc-418e-bc73-178201ccc4ec}, !- Handle
  DOE-2;                                  !- Algorithm

OS:HeatBalanceAlgorithm,
  {5a22c4c4-a6a6-4769-b0a8-f79498f98a6d}, !- Handle
  ConductionTransferFunction,             !- Algorithm
  200;                                    !- Surface Temperature Upper Limit {C}

OS:ZoneAirHeatBalanceAlgorithm,
  {24c912f8-6f7f-4792-8ea0-a8d47b3c41a1}, !- Handle
  AnalyticalSolution,                     !- Algorithm
  ,                                       !- Do Space Heat Balance for Sizing
  ;                                       !- Do Space Heat Balance for Simulation

OS:ZoneAirContaminantBalance,
  {07e7d420-4b9b-4760-8a70-01b36aa6074f}; !- Handle

OS:ZoneCapacitanceMultiplier:ResearchSpecial,
  {91056672-db13-4057-9cb7-7ac44d24bfc5}, !- Handle
  ,                                       !- Temperature Capacity Multiplier
  ,                                       !- Humidity Capacity Multiplier
  ;                                       !- Carbon Dioxide Capacity Multiplier

OS:RunPeriod,
  {17c33f47-c9b9-463a-84bc-12596f349148}, !- Handle
  Run Period 1,                           !- Name
  1,                                      !- Begin Month
  1,                                      !- Begin Day of Month
  12,                                     !- End Month
  31,                                     !- End Day of Month
  ,                                       !- Use Weather File Holidays and Special Days
  ,                                       !- Use Weather File Daylight Saving Period
  ,                                       !- Apply Weekend Holiday Rule
  ,                                       !- Use Weather File Rain Indicators
  ,                                       !- Use Weather File Snow Indicators
  ;                                       !- Number of Times Runperiod to be Repeated

OS:Building,
  {e0ce3521-4e53-4eca-8017-2f1c8dec2b50}, !- Handle
  Building 1,                             !- Name
  ,                                       !- Building Sector Type
  ,                                       !- North Axis {deg}
  ,                                       !- Nominal Floor to Floor Height {m}
  ,                                       !- Space Type Name
  ,                                       !- Default Construction Set Name
  ,                                       !- Default Schedule Set Name
  ,                                       !- Standards Number of Stories
  ,                                       !- Standards Number of Above Ground Stories
  ,                                       !- Standards Template
  ,                                       !- Standards Building Type
  ,                                       !- Standards Number of Living Units
  ,                                       !- Relocatable
  ;                                       !- Nominal Floor to Ceiling Height {m}

OS:Facility,
  {b6e6be84-f909-42a5-9deb-ef70c0296721}; !- Handle

OS:Site,
  {f38b0e3c-04e1-4822-940e-9b46c436222c}, !- Handle
  Montreal Int'l,                         !- Name
  45.47,                                  !- Latitude {deg}
  -73.75,                                 !- Longitude {deg}
  -5,                                     !- Time Zone {hr}
  36,                                     !- Elevation {m}
  ;                                       !- Terrain

OS:Rendering:Color,
  {4845bfd9-a92d-475e-92af-7d103b43d23e}, !- Handle
  Rendering Color 1,                      !- Name
  78,                                     !- Rendering Red Value
  167,                                    !- Rendering Green Value
  222;                                    !- Rendering Blue Value

OS:Schedule:Ruleset,
  {da60a2d7-4281-4f28-bb92-6b390ab2748b}, ! Handle
  MidriseApartment Apartment Light,       ! Name
  {299e448a-02fd-45cc-baf6-c1c41371c7b3}, ! Schedule Type Limits Name
  {37a18dec-5193-4723-a90b-0379c3af0a70}, ! Default Day Schedule Name
  {7285b5c2-019d-4531-a6e0-8f4ccaa1b971}, ! Summer Design Day Schedule Name
  {f1726713-d1f5-4236-84d4-fa82055f51dc}; ! Winter Design Day Schedule Name

OS:ScheduleTypeLimits,
  {299e448a-02fd-45cc-baf6-c1c41371c7b3}, ! Handle
  Fraction,                               ! Name
  0,                                      ! Lower Limit Value
  1,                                      ! Upper Limit Value
  CONTINUOUS;                             ! Numeric Type

OS:Schedule:Day,
  {37a18dec-5193-4723-a90b-0379c3af0a70}, ! Handle
  MidriseApartment Apartment Light Default Schedule, ! Name
  {299e448a-02fd-45cc-baf6-c1c41371c7b3}, ! Schedule Type Limits Name
  ,                                       ! Interpolate to Timestep
  4,                                      !- Hour 1
  0,                                      !- Minute 1
  0.067,                                  !- Value Until Time 1
  5,                                      !- Hour 2
  0,                                      !- Minute 2
  0.187,                                  !- Value Until Time 2
  6,                                      !- Hour 3
  0,                                      !- Minute 3
  0.394,                                  !- Value Until Time 3
  7,                                      !- Hour 4
  0,                                      !- Minute 4
  0.44,                                   !- Value Until Time 4
  8,                                      !- Hour 5
  0,                                      !- Minute 5
  0.393,                                  !- Value Until Time 5
  9,                                      !- Hour 6
  0,                                      !- Minute 6
  0.172,                                  !- Value Until Time 6
  15,                                     !- Hour 7
  0,                                      !- Minute 7
  0.119,                                  !- Value Until Time 7
  16,                                     !- Hour 8
  0,                                      !- Minute 8
  0.206,                                  !- Value Until Time 8
  17,                                     !- Hour 9
  0,                                      !- Minute 9
  0.439,                                  !- Value Until Time 9
  18,                                     !- Hour 10
  0,                                      !- Minute 10
  0.616,                                  !- Value Until Time 10
  19,                                     !- Hour 11
  0,                                      !- Minute 11
  0.829,                                  !- Value Until Time 11
  20,                                     !- Hour 12
  0,                                      !- Minute 12
  0.986,                                  !- Value Until Time 12
  21,                                     !- Hour 13
  0,                                      !- Minute 13
  1,                                      !- Value Until Time 13
  22,                                     !- Hour 14
  0,                                      !- Minute 14
  0.692,                                  !- Value Until Time 14
  23,                                     !- Hour 15
  0,                                      !- Minute 15
  0.384,                                  !- Value Until Time 15
  24,                                     !- Hour 16
  0,                                      !- Minute 16
  0.16;                                   !- Value Until Time 16

OS:Schedule:Day,
  {7285b5c2-019d-4531-a6e0-8f4ccaa1b971}, ! Handle
  MidriseApartment Apartment Light Summer Design Day, ! Name
  {299e448a-02fd-45cc-baf6-c1c41371c7b3}, ! Schedule Type Limits Name
  ,                                       ! Interpolate to Timestep
  4,                                      ! Hour 1
  0,                                      ! Minute 1
  0.067000000000000004,                   ! Value Until Time 1
  5,                                      ! Hour 2
  0,                                      ! Minute 2
  0.187,                                  ! Value Until Time 2
  6,                                      ! Hour 3
  0,                                      ! Minute 3
  0.39400000000000002,                    ! Value Until Time 3
  7,                                      ! Hour 4
  0,                                      ! Minute 4
  0.44,                                   ! Value Until Time 4
  8,                                      ! Hour 5
  0,                                      ! Minute 5
  0.39300000000000002,                    ! Value Until Time 5
  9,                                      ! Hour 6
  0,                                      ! Minute 6
  0.17199999999999999,                    ! Value Until Time 6
  15,                                     ! Hour 7
  0,                                      ! Minute 7
  0.11899999999999999,                    ! Value Until Time 7
  16,                                     ! Hour 8
  0,                                      ! Minute 8
  0.20599999999999999,                    ! Value Until Time 8
  17,                                     ! Hour 9
  0,                                      ! Minute 9
  0.439,                                  ! Value Until Time 9
  18,                                     ! Hour 10
  0,                                      ! Minute 10
  0.61599999999999999,                    ! Value Until Time 10
  19,                                     ! Hour 11
  0,                                      ! Minute 11
  0.82899999999999996,                    ! Value Until Time 11
  20,                                     ! Hour 12
  0,                                      ! Minute 12
  0.98599999999999999,                    ! Value Until Time 12
  21,                                     ! Hour 13
  0,                                      ! Minute 13
  1,                                      ! Value Until Time 13
  22,                                     ! Hour 14
  0,                                      ! Minute 14
  0.69199999999999995,                    ! Value Until Time 14
  23,                                     ! Hour 15
  0,                                      ! Minute 15
  0.38400000000000001,                    ! Value Until Time 15
  24,                                     ! Hour 16
  0,                                      ! Minute 16
  0.16;                                   ! Value Until Time 16

OS:Schedule:Day,
  {f1726713-d1f5-4236-84d4-fa82055f51dc}, ! Handle
  MidriseApartment Apartment Light Winter Design Day, ! Name
  {299e448a-02fd-45cc-baf6-c1c41371c7b3}, ! Schedule Type Limits Name
  ,                                       ! Interpolate to Timestep
  4,                                      ! Hour 1
  0,                                      ! Minute 1
  0.067000000000000004,                   ! Value Until Time 1
  5,                                      ! Hour 2
  0,                                      ! Minute 2
  0.187,                                  ! Value Until Time 2
  6,                                      ! Hour 3
  0,                                      ! Minute 3
  0.39400000000000002,                    ! Value Until Time 3
  7,                                      ! Hour 4
  0,                                      ! Minute 4
  0.44,                                   ! Value Until Time 4
  8,                                      ! Hour 5
  0,                                      ! Minute 5
  0.39300000000000002,                    ! Value Until Time 5
  9,                                      ! Hour 6
  0,                                      ! Minute 6
  0.17199999999999999,                    ! Value Until Time 6
  15,                                     ! Hour 7
  0,                                      ! Minute 7
  0.11899999999999999,                    ! Value Until Time 7
  16,                                     ! Hour 8
  0,                                      ! Minute 8
  0.20599999999999999,                    ! Value Until Time 8
  17,                                     ! Hour 9
  0,                                      ! Minute 9
  0.439,                                  ! Value Until Time 9
  18,                                     ! Hour 10
  0,                                      ! Minute 10
  0.61599999999999999,                    ! Value Until Time 10
  19,                                     ! Hour 11
  0,                                      ! Minute 11
  0.82899999999999996,                    ! Value Until Time 11
  20,                                     ! Hour 12
  0,                                      ! Minute 12
  0.98599999999999999,                    ! Value Until Time 12
  21,                                     ! Hour 13
  0,                                      ! Minute 13
  1,                                      ! Value Until Time 13
  22,                                     ! Hour 14
  0,                                      ! Minute 14
  0.69199999999999995,                    ! Value Until Time 14
  23,                                     ! Hour 15
  0,                                      ! Minute 15
  0.38400000000000001,                    ! Value Until Time 15
  24,                                     ! Hour 16
  0,                                      ! Minute 16
  0.16;                                   ! Value Until Time 16

OS:Schedule:Ruleset,
  {704db59f-beda-400f-b2fc-3ec9793407fa}, ! Handle
  MidriseApartment Apartment Occ,         ! Name
  {299e448a-02fd-45cc-baf6-c1c41371c7b3}, ! Schedule Type Limits Name
  {26e8c4e3-f64a-4826-9cbd-fe3d5d955338}, ! Default Day Schedule Name
  {3c8b9052-5ff2-41af-8a85-082bfd32eade}, ! Summer Design Day Schedule Name
  {fd7c09a4-3a2e-4ea8-a882-1f630ed042d3}; ! Winter Design Day Schedule Name

OS:Schedule:Day,
  {26e8c4e3-f64a-4826-9cbd-fe3d5d955338}, ! Handle
  MidriseApartment Apartment Occ Default Schedule, ! Name
  {299e448a-02fd-45cc-baf6-c1c41371c7b3}, ! Schedule Type Limits Name
  ,                                       ! Interpolate to Timestep
  7,                                      !- Hour 1
  0,                                      !- Minute 1
  1,                                      !- Value Until Time 1
  8,                                      !- Hour 2
  0,                                      !- Minute 2
  0.85,                                   !- Value Until Time 2
  9,                                      !- Hour 3
  0,                                      !- Minute 3
  0.39,                                   !- Value Until Time 3
  16,                                     !- Hour 4
  0,                                      !- Minute 4
  0.25,                                   !- Value Until Time 4
  17,                                     !- Hour 5
  0,                                      !- Minute 5
  0.3,                                    !- Value Until Time 5
  18,                                     !- Hour 6
  0,                                      !- Minute 6
  0.52,                                   !- Value Until Time 6
  21,                                     !- Hour 7
  0,                                      !- Minute 7
  0.87,                                   !- Value Until Time 7
  24,                                     !- Hour 8
  0,                                      !- Minute 8
  1;                                      !- Value Until Time 8

OS:Schedule:Day,
  {3c8b9052-5ff2-41af-8a85-082bfd32eade}, ! Handle
  MidriseApartment Apartment Occ Summer Design Day, ! Name
  {299e448a-02fd-45cc-baf6-c1c41371c7b3}, ! Schedule Type Limits Name
  ,                                       ! Interpolate to Timestep
  7,                                      ! Hour 1
  0,                                      ! Minute 1
  1,                                      ! Value Until Time 1
  8,                                      ! Hour 2
  0,                                      ! Minute 2
  0.84999999999999998,                    ! Value Until Time 2
  9,                                      ! Hour 3
  0,                                      ! Minute 3
  0.39000000000000001,                    ! Value Until Time 3
  16,                                     ! Hour 4
  0,                                      ! Minute 4
  0.25,                                   ! Value Until Time 4
  17,                                     ! Hour 5
  0,                                      ! Minute 5
  0.29999999999999999,                    ! Value Until Time 5
  18,                                     ! Hour 6
  0,                                      ! Minute 6
  0.52000000000000002,                    ! Value Until Time 6
  21,                                     ! Hour 7
  0,                                      ! Minute 7
  0.87,                                   ! Value Until Time 7
  24,                                     ! Hour 8
  0,                                      ! Minute 8
  1;                                      ! Value Until Time 8

OS:Schedule:Day,
  {fd7c09a4-3a2e-4ea8-a882-1f630ed042d3}, ! Handle
  MidriseApartment Apartment Occ Winter Design Day, ! Name
  {299e448a-02fd-45cc-baf6-c1c41371c7b3}, ! Schedule Type Limits Name
  ,                                       ! Interpolate to Timestep
  7,                                      ! Hour 1
  0,                                      ! Minute 1
  1,                                      ! Value Until Time 1
  8,                                      ! Hour 2
  0,                                      ! Minute 2
  0.84999999999999998,                    ! Value Until Time 2
  9,                                      ! Hour 3
  0,                                      ! Minute 3
  0.39000000000000001,                    ! Value Until Time 3
  16,                                     ! Hour 4
  0,                                      ! Minute 4
  0.25,                                   ! Value Until Time 4
  17,                                     ! Hour 5
  0,                                      ! Minute 5
  0.29999999999999999,                    ! Value Until Time 5
  18,                                     ! Hour 6
  0,                                      ! Minute 6
  0.52000000000000002,                    ! Value Until Time 6
  21,                                     ! Hour 7
  0,                                      ! Minute 7
  0.87,                                   ! Value Until Time 7
  24,                                     ! Hour 8
  0,                                      ! Minute 8
  1;                                      ! Value Until Time 8

OS:Schedule:Ruleset,
  {d9e40b91-5894-476b-8da9-d4d8c974e62b}, ! Handle
  MidriseApartment Activity,              ! Name
  {df77590f-10c9-4a49-b04f-4e3f73a85777}, ! Schedule Type Limits Name
  {8b9f72c9-1ff4-48d6-a853-0ddc1fb3fded}, ! Default Day Schedule Name
  {4bc415e1-5171-49d9-ae39-51808be467ee}, ! Summer Design Day Schedule Name
  {b0515b61-5593-4eec-9aa4-f33a1b638517}; ! Winter Design Day Schedule Name

OS:ScheduleTypeLimits,
  {df77590f-10c9-4a49-b04f-4e3f73a85777}, !- Handle
  ActivityLevel 1,                        !- Name
  0,                                      !- Lower Limit Value
  ,                                       !- Upper Limit Value
  Continuous,                             !- Numeric Type
  ActivityLevel;                          !- Unit Type

OS:Schedule:Day,
  {8b9f72c9-1ff4-48d6-a853-0ddc1fb3fded}, ! Handle
  MidriseApartment Activity Default Schedule, ! Name
  {df77590f-10c9-4a49-b04f-4e3f73a85777}, ! Schedule Type Limits Name
  ,                                       ! Interpolate to Timestep
  24,                                     !- Hour 1
  0,                                      !- Minute 1
  120;                                    !- Value Until Time 1

OS:Schedule:Day,
  {4bc415e1-5171-49d9-ae39-51808be467ee}, ! Handle
  MidriseApartment Activity Summer Design Day, ! Name
  {df77590f-10c9-4a49-b04f-4e3f73a85777}, ! Schedule Type Limits Name
  ,                                       ! Interpolate to Timestep
  24,                                     ! Hour 1
  0,                                      ! Minute 1
  120;                                    ! Value Until Time 1

OS:Schedule:Day,
  {b0515b61-5593-4eec-9aa4-f33a1b638517}, ! Handle
  MidriseApartment Activity Winter Design Day, ! Name
  {df77590f-10c9-4a49-b04f-4e3f73a85777}, ! Schedule Type Limits Name
  ,                                       ! Interpolate to Timestep
  24,                                     ! Hour 1
  0,                                      ! Minute 1
  120;                                    ! Value Until Time 1

OS:Schedule:Ruleset,
  {dcaa72dc-795d-483a-b28e-a76b4362539f}, ! Handle
  MidriseApartment Infil,                 ! Name
  {299e448a-02fd-45cc-baf6-c1c41371c7b3}, ! Schedule Type Limits Name
  {3a2e5cbe-2d25-4d57-9478-0cf040b49e62}, ! Default Day Schedule Name
  {6536fbb7-9bf3-4432-bb5f-683e5807bb6c}, ! Summer Design Day Schedule Name
  {4e322be6-1d2a-46d8-aab9-9f937eeebd50}; ! Winter Design Day Schedule Name

OS:Schedule:Day,
  {3a2e5cbe-2d25-4d57-9478-0cf040b49e62}, ! Handle
  MidriseApartment Infil Default Schedule, ! Name
  {299e448a-02fd-45cc-baf6-c1c41371c7b3}, ! Schedule Type Limits Name
  ,                                       ! Interpolate to Timestep
  24,                                     !- Hour 1
  0,                                      !- Minute 1
  1;                                      !- Value Until Time 1

OS:Schedule:Day,
  {6536fbb7-9bf3-4432-bb5f-683e5807bb6c}, ! Handle
  MidriseApartment Infil Summer Design Day, ! Name
  {299e448a-02fd-45cc-baf6-c1c41371c7b3}, ! Schedule Type Limits Name
  ,                                       ! Interpolate to Timestep
  24,                                     ! Hour 1
  0,                                      ! Minute 1
  1;                                      ! Value Until Time 1

OS:Schedule:Day,
  {4e322be6-1d2a-46d8-aab9-9f937eeebd50}, ! Handle
  MidriseApartment Infil Winter Design Day, ! Name
  {299e448a-02fd-45cc-baf6-c1c41371c7b3}, ! Schedule Type Limits Name
  ,                                       ! Interpolate to Timestep
  24,                                     ! Hour 1
  0,                                      ! Minute 1
  1;                                      ! Value Until Time 1

OS:Schedule:Ruleset,
  {319ee701-4542-4040-b27f-2aecf417df38}, ! Handle
  MidriseApartment Apartment Equip,       ! Name
  {299e448a-02fd-45cc-baf6-c1c41371c7b3}, ! Schedule Type Limits Name
  {24eec688-ca4e-49d2-a109-b168b718d036}, ! Default Day Schedule Name
  {24f34edb-4ad7-4194-b9cc-4803537f2a88}, ! Summer Design Day Schedule Name
  {8f36d93f-1c70-4695-ae4e-e3be50666f55}; ! Winter Design Day Schedule Name

OS:Schedule:Day,
  {24eec688-ca4e-49d2-a109-b168b718d036}, ! Handle
  MidriseApartment Apartment Equip Default Schedule, ! Name
  {299e448a-02fd-45cc-baf6-c1c41371c7b3}, ! Schedule Type Limits Name
  ,                                       ! Interpolate to Timestep
  1,                                      !- Hour 1
  0,                                      !- Minute 1
  0.45,                                   !- Value Until Time 1
  2,                                      !- Hour 2
  0,                                      !- Minute 2
  0.41,                                   !- Value Until Time 2
  3,                                      !- Hour 3
  0,                                      !- Minute 3
  0.39,                                   !- Value Until Time 3
  5,                                      !- Hour 4
  0,                                      !- Minute 4
  0.38,                                   !- Value Until Time 4
  6,                                      !- Hour 5
  0,                                      !- Minute 5
  0.43,                                   !- Value Until Time 5
  7,                                      !- Hour 6
  0,                                      !- Minute 6
  0.54,                                   !- Value Until Time 6
  8,                                      !- Hour 7
  0,                                      !- Minute 7
  0.65,                                   !- Value Until Time 7
  9,                                      !- Hour 8
  0,                                      !- Minute 8
  0.66,                                   !- Value Until Time 8
  10,                                     !- Hour 9
  0,                                      !- Minute 9
  0.67,                                   !- Value Until Time 9
  11,                                     !- Hour 10