
OS:Version,
  {c456a8db-bd90-46a8-9e64-117f67e50079}, !- Handle
  3.7.0;                                  !- Version Identifier

OS:Schedule:Constant,
  {da592e75-9d57-45e8-b002-be2fd5ab70ac}, !- Handle
  Always On Discrete,                     !- Name
  {e70b5791-2379-442c-8270-037a90060e26}, !- Schedule Type Limits Name
  1;                                      !- Value

OS:ScheduleTypeLimits,
  {e70b5791-2379-442c-8270-037a90060e26}, !- Handle
  Always On Discrete Limits,              !- Name
  0,                                      !- Lower Limit Value
  1,                                      !- Upper Limit Value
  Discrete,                               !- Numeric Type
  Availability;                           !- Unit Type

OS:ClimateZones,
  {8a3ac41c-57d4-48e4-a48e-1f232e262211}, !- Handle
  ASHRAE,                                 !- Climate Zone Institution Name 1
  ANSI/ASHRAE Standard 169,               !- Climate Zone Document Name 1
  2006,                                   !- Climate Zone Document Year 1
  ,                                       !- Climate Zone Value 1
  CEC,                                    !- Climate Zone Institution Name 2
  California Climate Zone Descriptions,   !- Climate Zone Document Name 2
  1995,                                   !- Climate Zone Document Year 2
  ;                                       !- Climate Zone Value 2

OS:LifeCycleCost:Parameters,
  {1d4d0f18-e6dd-45c8-896c-f4f2a89e6ae5}, !- Handle
  FEMP,                                   !- Analysis Type
  ,                                       !- Discounting Convention
  ,                                       !- Inflation Approach
  ,                                       !- Real Discount Rate
  ,                                       !- Nominal Discount Rate
  ,                                       !- Inflation
  ,                                       !- Base Date Month
  ,                                       !- Base Date Year
  ,                                       !- Service Date Month
  ,                                       !- Service Date Year
  ,                                       !- Length of Study Period in Years
  ,                                       !- Tax Rate
  ,                                       !- Depreciation Method
  Yes;                                    !- Use NIST Fuel Escalation Rates

OS:YearDescription,
  {c1349a5a-d7e1-4ed9-8e5b-24480649c25c}, !- Handle
  ,                                       !- Calendar Year
  Sunday;                                 !- Day of Week for Start Day

OS:RadianceParameters,
  {8297fd56-36de-4b79-a182-b7636f4ae3e3}, !- Handle
  1,                                      !- Accumulated Rays per Record
  0,                                      !- Direct Threshold
  1,                                      !- Direct Certainty
  1,                                      !- Direct Jitter
  1,                                      !- Direct Pretest
  6,                                      !- Ambient Bounces VMX
  2,                                      !- Ambient Bounces DMX
  4050,                                   !- Ambient Divisions VMX
  512,                                    !- Ambient Divisions DMX
  256,                                    !- Ambient Supersamples
  0.001,                                  !- Limit Weight VMX
  0.001,                                  !- Limit Weight DMX
  500,                                    !- Klems Sampling Density
  146;                                    !- Sky Discretization Resolution

OS:SimulationControl,
  {7c57f4fc-548f-44e7-a438-1feca6a75629}; !- Handle

OS:Sizing:Parameters,
  {ee365675-827e-489e-9a24-0f596988dec4}, !- Handle
  1.25,                                   !- Heating Sizing Factor
  1.15;                                   !- Cooling Sizing Factor

OS:ProgramControl,
  {8a7b938e-cdcb-40af-82b1-79c267c36bae}; !- Handle

OS:Timestep,
  {31824a36-2f0f-4919-a534-cdb00e20d2e0}, !- Handle
  6;                                      !- Number of Timesteps per Hour

OS:OutputControl:ReportingTolerances,
  {275082a5-6cfd-4756-972e-8810ab253e29}; !- Handle

OS:ConvergenceLimits,
  {fcca1605-8471-4f2f-a485-a59582311771}; !- Handle

OS:ShadowCalculation,
  {d875de65-75c7-4d9d-883e-07bd79421b67}, !- Handle
  PolygonClipping,                        !- Shading Calculation Method
  ,                                       !- Shading Calculation Update Frequency Method
  7,                                      !- Shading Calculation Update Frequency
  15000,                                  !- Maximum Figures in Shadow Overlap Calculations
  ,                                       !- Polygon Clipping Algorithm
  512,                                    !- Pixel Counting Resolution
  ,                                       !- Sky Diffuse Modeling Algorithm
  No,                                     !- Output External Shading Calculation Results
  No,                                     !- Disable Self-Shading Within Shading Zone Groups
  No;                                     !- Disable Self-Shading From Shading Zone Groups to Other Zones

OS:SurfaceConvectionAlgorithm:Inside,
  {5add9a33-b760-4e82-a0f9-3ae0e369b9c4}, !- Handle
  TARP;                                   !- Algorithm

OS:SurfaceConvectionAlgorithm:Outside,
  {0257be16-14fc-418e-bc73-178201ccc4ec}, !- Handle
  DOE-2;                                  !- Algorithm

OS:HeatBalanceAlgorithm,
  {5a22c4c4-a6a6-4769-b0a8-f79498f98a6d}, !- Handle
  ConductionTransferFunction,             !- Algorithm
  200;                                    !- Surface Temperature Upper Limit {C}

OS:ZoneAirHeatBalanceAlgorithm,
  {24c912f8-6f7f-4792-8ea0-a8d47b3c41a1}, !- Handle
  AnalyticalSolution,                     !- Algorithm
  ,                                       !- Do Space Heat Balance for Sizing
  ;                                       !- Do Space Heat Balance for Simulation

OS:ZoneAirContaminantBalance,
  {07e7d420-4b9b-4760-8a70-01b36aa6074f}; !- Handle

OS:ZoneCapacitanceMultiplier:ResearchSpecial,
  {91056672-db13-4057-9cb7-7ac44d24bfc5}, !- Handle
  ,                                       !- Temperature Capacity Multiplier
  ,                                       !- Humidity Capacity Multiplier
  ;                                       !- Carbon Dioxide Capacity Multiplier

OS:RunPeriod,
  {17c33f47-c9b9-463a-84bc-12596f349148}, !- Handle
  Run Period 1,                           !- Name
  1,                                      !- Begin Month
  1,                                      !- Begin Day of Month
  12,                                     !- End Month
  31,                                     !- End Day of Month
  ,                                       !- Use Weather File Holidays and Special Days
  ,                                       !- Use Weather File Daylight Saving Period
  ,                                       !- Apply Weekend Holiday Rule
  ,                                       !- Use Weather File Rain Indicators
  ,                                       !- Use Weather File Snow Indicators
  ;                                       !- Number of Times Runperiod to be Repeated

OS:Building,
  {e0ce3521-4e53-4eca-8017-2f1c8dec2b50}, !- Handle
  Building 1,                             !- Name
  ,                                       !- Building Sector Type
  ,                                       !- North Axis {deg}
  ,                                       !- Nominal Floor to Floor Height {m}
  ,                                       !- Space Type Name
  ,                                       !- Default Construction Set Name
  ,                                       !- Default Schedule Set Name
  ,                                       !- Standards Number of Stories
  ,                                       !- Standards Number of Above Ground Stories
  ,                                       !- Standards Template
  ,                                       !- Standards Building Type
  ,                                       !- Standards Number of Living Units
  ,                                       !- Relocatable
  ;                                       !- Nominal Floor to Ceiling Height {m}

OS:Facility,
  {b6e6be84-f909-42a5-9deb-ef70c0296721}; !- Handle

OS:Site,
  {f38b0e3c-04e1-4822-940e-9b46c436222c}, !- Handle
  Montreal Int'l,                         !- Name
  45.47,                                  !- Latitude {deg}
  -73.75,                                 !- Longitude {deg}
  -5,                                     !- Time Zone {hr}
  36,                                     !- Elevation {m}
  ;                                       !- Terrain

OS:Rendering:Color,
  {53aca611-9606-41ae-a88b-03772c83b6ab}, !- Handle
  Rendering Color 1,                      !- Name
  78,                                     !- Rendering Red Value
  167,                                    !- Rendering Green Value
  222;                                    !- Rendering Blue Value

OS:Schedule:Ruleset,
  {3a20026c-5f5a-43d3-9b7b-9ccf078368a5}, ! Handle
  MidriseApartment Apartment Light,       ! Name
  {687f11ae-a528-4d5e-b55b-21b06f3d3db9}, ! Schedule Type Limits Name
  {5f990961-a881-4223-a9f8-00f44cc76f55}, ! Default Day Schedule Name
  {7fdb6f45-4bda-4f87-8a5b-ea7d1d68dfa3}, ! Summer Design Day Schedule Name
  {a945c2f6-7940-49e4-a8e4-ac41f914d390}; ! Winter Design Day Schedule Name

OS:ScheduleTypeLimits,
  {687f11ae-a528-4d5e-b55b-21b06f3d3db9}, ! Handle
  Fraction,                               ! Name
  0,                                      ! Lower Limit Value
  1,                                      ! Upper Limit Value
  CONTINUOUS;                             ! Numeric Type

OS:Schedule:Day,
  {5f990961-a881-4223-a9f8-00f44cc76f55}, ! Handle
  MidriseApartment Apartment Light Default Schedule, ! Name
  {687f11ae-a528-4d5e-b55b-21b06f3d3db9}, ! Schedule Type Limits Name
  ,                                       ! Interpolate to Timestep
  4,                                      !- Hour 1
  0,                                      !- Minute 1
  0.067,                                  !- Value Until Time 1
  5,                                      !- Hour 2
  0,                                      !- Minute 2
  0.187,                                  !- Value Until Time 2
  6,                                      !- Hour 3
  0,                                      !- Minute 3
  0.394,                                  !- Value Until Time 3
  7,                                      !- Hour 4
  0,                                      !- Minute 4
  0.44,                                   !- Value Until Time 4
  8,                                      !- Hour 5
  0,                                      !- Minute 5
  0.393,                                  !- Value Until Time 5
  9,                                      !- Hour 6
  0,                                      !- Minute 6
  0.172,                                  !- Value Until Time 6
  15,                                     !- Hour 7
  0,                                      !- Minute 7
  0.119,                                  !- Value Until Time 7
  16,                                     !- Hour 8
  0,                                      !- Minute 8
  0.206,                                  !- Value Until Time 8
  17,                                     !- Hour 9
  0,                                      !- Minute 9
  0.439,                                  !- Value Until Time 9
  18,                                     !- Hour 10
  0,                                      !- Minute 10
  0.616,                                  !- Value Until Time 10
  19,                                     !- Hour 11
  0,                                      !- Minute 11
  0.829,                                  !- Value Until Time 11
  20,                                     !- Hour 12
  0,                                      !- Minute 12
  0.986,                                  !- Value Until Time 12
  21,                                     !- Hour 13
  0,                                      !- Minute 13
  1,                                      !- Value Until Time 13
  22,                                     !- Hour 14
  0,                                      !- Minute 14
  0.692,                                  !- Value Until Time 14
  23,                                     !- Hour 15
  0,                                      !- Minute 15
  0.384,                                  !- Value Until Time 15
  24,                                     !- Hour 16
  0,                                      !- Minute 16
  0.16;                                   !- Value Until Time 16

OS:Schedule:Day,
  {7fdb6f45-4bda-4f87-8a5b-ea7d1d68dfa3}, ! Handle
  MidriseApartment Apartment Light Summer Design Day, ! Name
  {687f11ae-a528-4d5e-b55b-21b06f3d3db9}, ! Schedule Type Limits Name
  ,                                       ! Interpolate to Timestep
  4,                                      ! Hour 1
  0,                                      ! Minute 1
  0.067000000000000004,                   ! Value Until Time 1
  5,                                      ! Hour 2
  0,                                      ! Minute 2
  0.187,                                  ! Value Until Time 2
  6,                                      ! Hour 3
  0,                                      ! Minute 3
  0.39400000000000002,                    ! Value Until Time 3
  7,                                      ! Hour 4
  0,                                      ! Minute 4
  0.44,                                   ! Value Until Time 4
  8,                                      ! Hour 5
  0,                                      ! Minute 5
  0.39300000000000002,                    ! Value Until Time 5
  9,                                      ! Hour 6
  0,                                      ! Minute 6
  0.17199999999999999,                    ! Value Until Time 6
  15,                                     ! Hour 7
  0,                                      ! Minute 7
  0.11899999999999999,                    ! Value Until Time 7
  16,                                     ! Hour 8
  0,                                      ! Minute 8
  0.20599999999999999,                    ! Value Until Time 8
  17,                                     ! Hour 9
  0,                                      ! Minute 9
  0.439,                                  ! Value Until Time 9
  18,                                     ! Hour 10
  0,                                      ! Minute 10
  0.61599999999999999,                    ! Value Until Time 10
  19,                                     ! Hour 11
  0,                                      ! Minute 11
  0.82899999999999996,                    ! Value Until Time 11
  20,                                     ! Hour 12
  0,                                      ! Minute 12
  0.98599999999999999,                    ! Value Until Time 12
  21,                                     ! Hour 13
  0,                                      ! Minute 13
  1,                                      ! Value Until Time 13
  22,                                     ! Hour 14
  0,                                      ! Minute 14
  0.69199999999999995,                    ! Value Until Time 14
  23,                                     ! Hour 15
  0,                                      ! Minute 15
  0.38400000000000001,                    ! Value Until Time 15
  24,                                     ! Hour 16
  0,                                      ! Minute 16
  0.16;                                   ! Value Until Time 16

OS:Schedule:Day,
  {a945c2f6-7940-49e4-a8e4-ac41f914d390}, ! Handle
  MidriseApartment Apartment Light Winter Design Day, ! Name
  {687f11ae-a528-4d5e-b55b-21b06f3d3db9}, ! Schedule Type Limits Name
  ,                                       ! Interpolate to Timestep
  4,                                      ! Hour 1
  0,                                      ! Minute 1
  0.067000000000000004,                   ! Value Until Time 1
  5,                                      ! Hour 2
  0,                                      ! Minute 2
  0.187,                                  ! Value Until Time 2
  6,                                      ! Hour 3
  0,                                      ! Minute 3
  0.39400000000000002,                    ! Value Until Time 3
  7,                                      ! Hour 4
  0,                                      ! Minute 4
  0.44,                                   ! Value Until Time 4
  8,                                      ! Hour 5
  0,                                      ! Minute 5
  0.39300000000000002,                    ! Value Until Time 5
  9,                                      ! Hour 6
  0,                                      ! Minute 6
  0.17199999999999999,                    ! Value Until Time 6
  15,                                     ! Hour 7
  0,                                      ! Minute 7
  0.11899999999999999,                    ! Value Until Time 7
  16,                                     ! Hour 8
  0,                                      ! Minute 8
  0.20599999999999999,                    ! Value Until Time 8
  17,                                     ! Hour 9
  0,                                      ! Minute 9
  0.439,                                  ! Value Until Time 9
  18,                                     ! Hour 10
  0,                                      ! Minute 10
  0.61599999999999999,                    ! Value Until Time 10
  19,                                     ! Hour 11
  0,                                      ! Minute 11
  0.82899999999999996,                    ! Value Until Time 11
  20,                                     ! Hour 12
  0,                                      ! Minute 12
  0.98599999999999999,                    ! Value Until Time 12
  21,                                     ! Hour 13
  0,                                      ! Minute 13
  1,                                      ! Value Until Time 13
  22,                                     ! Hour 14
  0,                                      ! Minute 14
  0.69199999999999995,                    ! Value Until Time 14
  23,                                     ! Hour 15
  0,                                      ! Minute 15
  0.38400000000000001,                    ! Value Until Time 15
  24,                                     ! Hour 16
  0,                                      ! Minute 16
  0.16;                                   ! Value Until Time 16

OS:Schedule:Ruleset,
  {0ae05ff3-c097-4971-9b57-fe5edfea7b6b}, ! Handle
  MidriseApartment Apartment Occ,         ! Name
  {687f11ae-a528-4d5e-b55b-21b06f3d3db9}, ! Schedule Type Limits Name
  {4f2c8641-741e-4430-9178-0a4075f0e3c0}, ! Default Day Schedule Name
  {54722c34-83b9-4c43-b3f2-33ce1f387378}, ! Summer Design Day Schedule Name
  {eb047b37-251e-4582-b485-3a9e7acd0e2b}; ! Winter Design Day Schedule Name

OS:Schedule:Day,
  {4f2c8641-741e-4430-9178-0a4075f0e3c0}, ! Handle
  MidriseApartment Apartment Occ Default Schedule, ! Name
  {687f11ae-a528-4d5e-b55b-21b06f3d3db9}, ! Schedule Type Limits Name
  ,                                       ! Interpolate to Timestep
  7,                                      !- Hour 1
  0,                                      !- Minute 1
  1,                                      !- Value Until Time 1
  8,                                      !- Hour 2
  0,                                      !- Minute 2
  0.85,                                   !- Value Until Time 2
  9,                                      !- Hour 3
  0,                                      !- Minute 3
  0.39,                                   !- Value Until Time 3
  16,                                     !- Hour 4
  0,                                      !- Minute 4
  0.25,                                   !- Value Until Time 4
  17,                                     !- Hour 5
  0,                                      !- Minute 5
  0.3,                                    !- Value Until Time 5
  18,                                     !- Hour 6
  0,                                      !- Minute 6
  0.52,                                   !- Value Until Time 6
  21,                                     !- Hour 7
  0,                                      !- Minute 7
  0.87,                                   !- Value Until Time 7
  24,                                     !- Hour 8
  0,                                      !- Minute 8
  1;                                      !- Value Until Time 8

OS:Schedule:Day,
  {54722c34-83b9-4c43-b3f2-33ce1f387378}, ! Handle
  MidriseApartment Apartment Occ Summer Design Day, ! Name
  {687f11ae-a528-4d5e-b55b-21b06f3d3db9}, ! Schedule Type Limits Name
  ,                                       ! Interpolate to Timestep
  7,                                      ! Hour 1
  0,                                      ! Minute 1
  1,                                      ! Value Until Time 1
  8,                                      ! Hour 2
  0,                                      ! Minute 2
  0.84999999999999998,                    ! Value Until Time 2
  9,                                      ! Hour 3
  0,                                      ! Minute 3
  0.39000000000000001,                    ! Value Until Time 3
  16,                                     ! Hour 4
  0,                                      ! Minute 4
  0.25,                                   ! Value Until Time 4
  17,                                     ! Hour 5
  0,                                      ! Minute 5
  0.29999999999999999,                    ! Value Until Time 5
  18,                                     ! Hour 6
  0,                                      ! Minute 6
  0.52000000000000002,                    ! Value Until Time 6
  21,                                     ! Hour 7
  0,                                      ! Minute 7
  0.87,                                   ! Value Until Time 7
  24,                                     ! Hour 8
  0,                                      ! Minute 8
  1;                                      ! Value Until Time 8

OS:Schedule:Day,
  {eb047b37-251e-4582-b485-3a9e7acd0e2b}, ! Handle
  MidriseApartment Apartment Occ Winter Design Day, ! Name
  {687f11ae-a528-4d5e-b55b-21b06f3d3db9}, ! Schedule Type Limits Name
  ,                                       ! Interpolate to Timestep
  7,                                      ! Hour 1
  0,                                      ! Minute 1
  1,                                      ! Value Until Time 1
  8,                                      ! Hour 2
  0,                                      ! Minute 2
  0.84999999999999998,                    ! Value Until Time 2
  9,                                      ! Hour 3
  0,                                      ! Minute 3
  0.39000000000000001,                    ! Value Until Time 3
  16,                                     ! Hour 4
  0,                                      ! Minute 4
  0.25,                                   ! Value Until Time 4
  17,                                     ! Hour 5
  0,                                      ! Minute 5
  0.29999999999999999,                    ! Value Until Time 5
  18,                                     ! Hour 6
  0,                                      ! Minute 6
  0.52000000000000002,                    ! Value Until Time 6
  21,                                     ! Hour 7
  0,                                      ! Minute 7
  0.87,                                   ! Value Until Time 7
  24,                                     ! Hour 8
  0,                                      ! Minute 8
  1;                                      ! Value Until Time 8

OS:Schedule:Ruleset,
  {f2a91b5e-72bf-49a9-ba0a-20d75be43bcc}, ! Handle
  MidriseApartment Activity,              ! Name
  {e70b2fb8-f388-43fb-82b4-346fa487787c}, ! Schedule Type Limits Name
  {d857da11-8cf3-4bb8-b5b3-14ce17420bd8}, ! Default Day Schedule Name
  {6c94f0e1-1ee7-491c-a7f9-919b86ea085b}, ! Summer Design Day Schedule Name
  {41f476f1-fcf3-45dd-aaa7-87bee65ec83b}; ! Winter Design Day Schedule Name

OS:ScheduleTypeLimits,
  {e70b2fb8-f388-43fb-82b4-346fa487787c}, !- Handle
  ActivityLevel 1,                        !- Name
  0,                                      !- Lower Limit Value
  ,                                       !- Upper Limit Value
  Continuous,                             !- Numeric Type
  ActivityLevel;                          !- Unit Type

OS:Schedule:Day,
  {d857da11-8cf3-4bb8-b5b3-14ce17420bd8}, ! Handle
  MidriseApartment Activity Default Schedule, ! Name
  {e70b2fb8-f388-43fb-82b4-346fa487787c}, ! Schedule Type Limits Name
  ,                                       ! Interpolate to Timestep
  24,                                     !- Hour 1
  0,                                      !- Minute 1
  120;                                    !- Value Until Time 1

OS:Schedule:Day,
  {6c94f0e1-1ee7-491c-a7f9-919b86ea085b}, ! Handle
  MidriseApartment Activity Summer Design Day, ! Name
  {e70b2fb8-f388-43fb-82b4-346fa487787c}, ! Schedule Type Limits Name
  ,                                       ! Interpolate to Timestep
  24,                                     ! Hour 1
  0,                                      ! Minute 1
  120;                                    ! Value Until Time 1

OS:Schedule:Day,
  {41f476f1-fcf3-45dd-aaa7-87bee65ec83b}, ! Handle
  MidriseApartment Activity Winter Design Day, ! Name
  {e70b2fb8-f388-43fb-82b4-346fa487787c}, ! Schedule Type Limits Name
  ,                                       ! Interpolate to Timestep
  24,                                     ! Hour 1
  0,                                      ! Minute 1
  120;                                    ! Value Until Time 1

OS:Schedule:Ruleset,
  {c6cb4631-0b94-489a-91ca-7607faf4c5b2}, ! Handle
  MidriseApartment Infil,                 ! Name
  {687f11ae-a528-4d5e-b55b-21b06f3d3db9}, ! Schedule Type Limits Name
  {c3d2b2d7-8a18-4cfd-992e-c7e615033065}, ! Default Day Schedule Name
  {c396c9ac-7d48-4a18-911a-fd4a4af8bed7}, ! Summer Design Day Schedule Name
  {1e1c62b1-a31f-487a-944c-dece6d2f0933}; ! Winter Design Day Schedule Name

OS:Schedule:Day,
  {c3d2b2d7-8a18-4cfd-992e-c7e615033065}, ! Handle
  MidriseApartment Infil Default Schedule, ! Name
  {687f11ae-a528-4d5e-b55b-21b06f3d3db9}, ! Schedule Type Limits Name
  ,                                       ! Interpolate to Timestep
  24,                                     !- Hour 1
  0,                                      !- Minute 1
  1;                                      !- Value Until Time 1

OS:Schedule:Day,
  {c396c9ac-7d48-4a18-911a-fd4a4af8bed7}, ! Handle
  MidriseApartment Infil Summer Design Day, ! Name
  {687f11ae-a528-4d5e-b55b-21b06f3d3db9}, ! Schedule Type Limits Name
  ,                                       ! Interpolate to Timestep
  24,                                     ! Hour 1
  0,                                      ! Minute 1
  1;                                      ! Value Until Time 1

OS:Schedule:Day,
  {1e1c62b1-a31f-487a-944c-dece6d2f0933}, ! Handle
  MidriseApartment Infil Winter Design Day, ! Name
  {687f11ae-a528-4d5e-b55b-21b06f3d3db9}, ! Schedule Type Limits Name
  ,                                       ! Interpolate to Timestep
  24,                                     ! Hour 1
  0,                                      ! Minute 1
  1;                                      ! Value Until Time 1

OS:Schedule:Ruleset,
  {43ea1778-851b-4841-a3d4-961e9de4130e}, ! Handle
  MidriseApartment Apartment Equip,       ! Name
  {687f11ae-a528-4d5e-b55b-21b06f3d3db9}, ! Schedule Type Limits Name
  {3750d611-e64e-4dd7-a4a3-3835be482d43}, ! Default Day Schedule Name
  {5d6ca669-67b1-473e-b7e4-2d39c422d346}, ! Summer Design Day Schedule Name
  {5ee77a32-840e-4881-8e55-a8c384074ef0}; ! Winter Design Day Schedule Name

OS:Schedule:Day,
  {3750d611-e64e-4dd7-a4a3-3835be482d43}, ! Handle
  MidriseApartment Apartment Equip Default Schedule, ! Name
  {687f11ae-a528-4d5e-b55b-21b06f3d3db9}, ! Schedule Type Limits Name
  ,                                       ! Interpolate to Timestep
  1,                                      !- Hour 1
  0,                                      !- Minute 1
  0.45,                                   !- Value Until Time 1
  2,                                      !- Hour 2
  0,                                      !- Minute 2
  0.41,                                   !- Value Until Time 2
  3,                                      !- Hour 3
  0,                                      !- Minute 3
  0.39,                                   !- Value Until Time 3
  5,                                      !- Hour 4
  0,                                      !- Minute 4
  0.38,                                   !- Value Until Time 4
  6,                                      !- Hour 5
  0,                                      !- Minute 5
  0.43,                                   !- Value Until Time 5
  7,                                      !- Hour 6
  0,                                      !- Minute 6
  0.54,                                   !- Value Until Time 6
  8,                                      !- Hour 7
  0,                                      !- Minute 7
  0.65,                                   !- Value Until Time 7
  9,                                      !- Hour 8
  0,                                      !- Minute 8
  0.66,                                   !- Value Until Time 8
  10,                                     !- Hour 9
  0,                                      !- Minute 9
  0.67,                                   !- Value Until Time 9
  11,                                     !- Hour 10