
Version,
  23.2;                                   !- Version Identifier

Timestep,
  6;                                      !- Number of Timesteps per Hour

LifeCycleCost:Parameters,
  Life Cycle Cost Parameters,             !- Name
  EndOfYear,                              !- Discounting Convention
  ConstantDollar,                         !- Inflation Approach
  0.03,                                   !- Real Discount Rate
  ,                                       !- Nominal Discount Rate
  ,                                       !- Inflation
  ,                                       !- Base Date Month
  2011,                                   !- Base Date Year
  ,                                       !- Service Date Month
  2011,                                   !- Service Date Year
  25,                                     !- Length of Study Period in Years
  ,                                       !- Tax rate
  None;                                   !- Depreciation Method

LifeCycleCost:UsePriceEscalation,
  U.S. Avg  Commercial-Electricity,       !- Name
  Electricity,                            !- Resource
  2011,                                   !- Escalation Start Year
  January,                                !- Escalation Start Month
  0.9838,                                 !- Year Escalation 1
  0.9730,                                 !- Year Escalation 2
  0.9632,                                 !- Year Escalation 3
  0.9611,                                 !- Year Escalation 4
  0.9571,                                 !- Year Escalation 5
  0.9553,                                 !- Year Escalation 6
  0.9539,                                 !- Year Escalation 7
  0.9521,                                 !- Year Escalation 8
  0.9546,                                 !- Year Escalation 9
  0.9550,                                 !- Year Escalation 10
  0.9553,                                 !- Year Escalation 11
  0.9564,                                 !- Year Escalation 12
  0.9575,                                 !- Year Escalation 13
  0.9596,                                 !- Year Escalation 14
  0.9618,                                 !- Year Escalation 15
  0.9614,                                 !- Year Escalation 16
  0.9618,                                 !- Year Escalation 17
  0.9618,                                 !- Year Escalation 18
  0.9593,                                 !- Year Escalation 19
  0.9589,                                 !- Year Escalation 20
  0.9607,                                 !- Year Escalation 21
  0.9625,                                 !- Year Escalation 22
  0.9650,                                 !- Year Escalation 23
  0.9708,                                 !- Year Escalation 24
  0.9751,                                 !- Year Escalation 25
  0.9762,                                 !- Year Escalation 26
  0.9766,                                 !- Year Escalation 27
  0.9766,                                 !- Year Escalation 28
  0.9769,                                 !- Year Escalation 29
  0.9773;                                 !- Year Escalation 30

LifeCycleCost:UsePriceEscalation,
  U.S. Avg  Commercial-Distillate Oil,    !- Name
  FuelOilNo1,                             !- Resource
  2011,                                   !- Escalation Start Year
  January,                                !- Escalation Start Month
  0.9714,                                 !- Year Escalation 1
  0.9730,                                 !- Year Escalation 2
  0.9942,                                 !- Year Escalation 3
  1.0164,                                 !- Year Escalation 4
  1.0541,                                 !- Year Escalation 5
  1.0928,                                 !- Year Escalation 6
  1.1267,                                 !- Year Escalation 7
  1.1580,                                 !- Year Escalation 8
  1.1792,                                 !- Year Escalation 9
  1.1967,                                 !- Year Escalation 10
  1.2200,                                 !- Year Escalation 11
  1.2333,                                 !- Year Escalation 12
  1.2566,                                 !- Year Escalation 13
  1.2709,                                 !- Year Escalation 14
  1.2826,                                 !- Year Escalation 15
  1.2985,                                 !- Year Escalation 16
  1.3102,                                 !- Year Escalation 17
  1.3250,                                 !- Year Escalation 18
  1.3261,                                 !- Year Escalation 19
  1.3282,                                 !- Year Escalation 20
  1.3324,                                 !- Year Escalation 21
  1.3356,                                 !- Year Escalation 22
  1.3431,                                 !- Year Escalation 23
  1.3510,                                 !- Year Escalation 24
  1.3568,                                 !- Year Escalation 25
  1.3606,                                 !- Year Escalation 26
  1.3637,                                 !- Year Escalation 27
  1.3674,                                 !- Year Escalation 28
  1.3706,                                 !- Year Escalation 29
  1.3743;                                 !- Year Escalation 30

LifeCycleCost:UsePriceEscalation,
  U.S. Avg  Commercial-Residual Oil,      !- Name
  FuelOilNo2,                             !- Resource
  2011,                                   !- Escalation Start Year
  January,                                !- Escalation Start Month
  0.8469,                                 !- Year Escalation 1
  0.8257,                                 !- Year Escalation 2
  0.8681,                                 !- Year Escalation 3
  0.8988,                                 !- Year Escalation 4
  0.9289,                                 !- Year Escalation 5
  0.9604,                                 !- Year Escalation 6
  0.9897,                                 !- Year Escalation 7
  1.0075,                                 !- Year Escalation 8
  1.0314,                                 !- Year Escalation 9
  1.0554,                                 !- Year Escalation 10
  1.0861,                                 !- Year Escalation 11
  1.1278,                                 !- Year Escalation 12
  1.1497,                                 !- Year Escalation 13
  1.1620,                                 !- Year Escalation 14
  1.1743,                                 !- Year Escalation 15
  1.1852,                                 !- Year Escalation 16
  1.1948,                                 !- Year Escalation 17
  1.2037,                                 !- Year Escalation 18
  1.2071,                                 !- Year Escalation 19
  1.2119,                                 !- Year Escalation 20
  1.2139,                                 !- Year Escalation 21
  1.2194,                                 !- Year Escalation 22
  1.2276,                                 !- Year Escalation 23
  1.2365,                                 !- Year Escalation 24
  1.2420,                                 !- Year Escalation 25
  1.2461,                                 !- Year Escalation 26
  1.2509,                                 !- Year Escalation 27
  1.2550,                                 !- Year Escalation 28
  1.2591,                                 !- Year Escalation 29
  1.2638;                                 !- Year Escalation 30

LifeCycleCost:UsePriceEscalation,
  U.S. Avg  Commercial-Natural gas,       !- Name
  NaturalGas,                             !- Resource
  2011,                                   !- Escalation Start Year
  January,                                !- Escalation Start Month
  0.9823,                                 !- Year Escalation 1
  0.9557,                                 !- Year Escalation 2
  0.9279,                                 !- Year Escalation 3
  0.9257,                                 !- Year Escalation 4
  0.9346,                                 !- Year Escalation 5
  0.9412,                                 !- Year Escalation 6
  0.9512,                                 !- Year Escalation 7
  0.9645,                                 !- Year Escalation 8
  0.9856,                                 !- Year Escalation 9
  1.0067,                                 !- Year Escalation 10
  1.0222,                                 !- Year Escalation 11
  1.0410,                                 !- Year Escalation 12
  1.0610,                                 !- Year Escalation 13
  1.0787,                                 !- Year Escalation 14
  1.0942,                                 !- Year Escalation 15
  1.1098,                                 !- Year Escalation 16
  1.1220,                                 !- Year Escalation 17
  1.1308,                                 !- Year Escalation 18
  1.1386,                                 !- Year Escalation 19
  1.1486,                                 !- Year Escalation 20
  1.1619,                                 !- Year Escalation 21
  1.1763,                                 !- Year Escalation 22
  1.1918,                                 !- Year Escalation 23
  1.2118,                                 !- Year Escalation 24
  1.2284,                                 !- Year Escalation 25
  1.2439,                                 !- Year Escalation 26
  1.2605,                                 !- Year Escalation 27
  1.2772,                                 !- Year Escalation 28
  1.2938,                                 !- Year Escalation 29
  1.3115;                                 !- Year Escalation 30

LifeCycleCost:UsePriceEscalation,
  U.S. Avg  Commercial-Coal,              !- Name
  Coal,                                   !- Resource
  2011,                                   !- Escalation Start Year
  January,                                !- Escalation Start Month
  0.9970,                                 !- Year Escalation 1
  1.0089,                                 !- Year Escalation 2
  1.0089,                                 !- Year Escalation 3
  0.9941,                                 !- Year Escalation 4
  0.9941,                                 !- Year Escalation 5
  1.0000,                                 !- Year Escalation 6
  1.0030,                                 !- Year Escalation 7
  1.0059,                                 !- Year Escalation 8
  1.0089,                                 !- Year Escalation 9
  1.0119,                                 !- Year Escalation 10
  1.0148,                                 !- Year Escalation 11
  1.0178,                                 !- Year Escalation 12
  1.0208,                                 !- Year Escalation 13
  1.0267,                                 !- Year Escalation 14
  1.0297,                                 !- Year Escalation 15
  1.0356,                                 !- Year Escalation 16
  1.0415,                                 !- Year Escalation 17
  1.0534,                                 !- Year Escalation 18
  1.0564,                                 !- Year Escalation 19
  1.0593,                                 !- Year Escalation 20
  1.0653,                                 !- Year Escalation 21
  1.0712,                                 !- Year Escalation 22
  1.0742,                                 !- Year Escalation 23
  1.0801,                                 !- Year Escalation 24
  1.0831,                                 !- Year Escalation 25
  1.0831,                                 !- Year Escalation 26
  1.0861,                                 !- Year Escalation 27
  1.0890,                                 !- Year Escalation 28
  1.0920,                                 !- Year Escalation 29
  1.0950;                                 !- Year Escalation 30

Building,
  SchoolPrimary,                          !- Name
  0,                                      !- North Axis {deg}
  City,                                   !- Terrain
  0.04,                                   !- Loads Convergence Tolerance Value {W}
  0.4,                                    !- Temperature Convergence Tolerance Value {deltaC}
  FullInteriorAndExterior,                !- Solar Distribution
  25,                                     !- Maximum Number of Warmup Days
  6;                                      !- Minimum Number of Warmup Days

Zone,
  Bath_1,                                 !- Name
  0,                                      !- Direction of Relative North {deg}
  0,                                      !- X Origin {m}
  0,                                      !- Y Origin {m}
  0,                                      !- Z Origin {m}
  ,                                       !- Type
  1,                                      !- Multiplier
  ,                                       !- Ceiling Height {m}
  ,                                       !- Volume {m3}
  ,                                       !- Floor Area {m2}
  ,                                       !- Zone Inside Convection Algorithm
  ,                                       !- Zone Outside Convection Algorithm
  Yes;                                    !- Part of Total Floor Area

Space,
  Bath_1_Space,                           !- Name
  Bath_1,                                 !- Zone Name
  ,                                       !- Ceiling Height {m}
  ,                                       !- Volume {m3}
  ,                                       !- Floor Area {m2}
  Bathroom_spacetype;                     !- Space Type

SpaceList,
  Bathroom_spacetype,                     !- Name
  Bath_1_Space,                           !- Space Name 1
  Bath_2_Space;                           !- Space Name 2

InternalMass,
  Bath_1_Space Bath Internal Mass,        !- Name
  PrimarySchool_InteriorFurnishings,      !- Construction Name
  Bath_1,                                 !- Zone or ZoneList Name
  Bath_1_Space,                           !- Space or SpaceList Name
  40;                                     !- Surface Area {m2}

InternalMass,
  Bath_2_Space Bath Internal Mass,        !- Name
  PrimarySchool_InteriorFurnishings,      !- Construction Name
  Bath_2,                                 !- Zone or ZoneList Name
  Bath_2_Space,                           !- Space or SpaceList Name
  40;                                     !- Surface Area {m2}

Lights,
  Bath Lights,                            !- Name
  Bathroom_spacetype,                     !- Zone or ZoneList or Space or SpaceList Name
  BLDG_LIGHT_SCH,                         !- Schedule Name
  Watts/Area,                             !- Design Level Calculation Method
  ,                                       !- Lighting Level {W}
  8,                                      !- Watts per Zone Floor Area {W/m2}
  ,                                       !- Watts per Person {W/person}
  0,                                      !- Return Air Fraction
  0.37,                                   !- Fraction Radiant
  0.2,                                    !- Fraction Visible
  1,                                      !- Fraction Replaceable
  General,                                !- End-Use Subcategory
  No;                                     !- Return Air Fraction Calculated from Plenum Temperature

Schedule:Compact,
  BLDG_LIGHT_SCH,                         !- Name
  Fraction,                               !- Schedule Type Limits Name
  Through: 12/31,                         !- Field 1
  For: Weekdays,                          !- Field 2
  Until: 8:00,                            !- Field 3
  0.05,                                   !- Field 4
  Until: 9:00,                            !- Field 5
  0.3,                                    !- Field 6
  Until: 16:00,                           !- Field 7
  0.9,                                    !- Field 8
  Until: 17:00,                           !- Field 9
  0.7,                                    !- Field 10
  Until: 19:00,                           !- Field 11
  0.5,                                    !- Field 12
  Until: 24:00,                           !- Field 13
  0.05,                                   !- Field 14
  For: SummerDesignDay,                   !- Field 15
  Until: 24:00,                           !- Field 16
  1,                                      !- Field 17
  For: WinterDesignDay,                   !- Field 18
  Until: 24:00,                           !- Field 19
  0,                                      !- Field 20
  For: WeekEnds Holidays AllOtherDays,    !- Field 21
  Until: 24:00,                           !- Field 22
  0.05;                                   !- Field 23

ScheduleTypeLimits,
  Fraction,                               !- Name
  0,                                      !- Lower Limit Value {BasedOnField A3}
  1,                                      !- Upper Limit Value {BasedOnField A3}
  CONTINUOUS;                             !- Numeric Type

People,
  Bath People,                            !- Name
  Bathroom_spacetype,                     !- Zone or ZoneList or Space or SpaceList Name
  BLDG_OCC_SCH,                           !- Number of People Schedule Name
  People,                                 !- Number of People Calculation Method
  0,                                      !- Number of People
  ,                                       !- People per Floor Area {person/m2}
  ,                                       !- Floor Area per Person {m2/person}
  0.3,                                    !- Fraction Radiant
  ,                                       !- Sensible Heat Fraction
  ACTIVITY_SCH,                           !- Activity Level Schedule Name
  ,                                       !- Carbon Dioxide Generation Rate {m3/s-W}
  No,                                     !- Enable ASHRAE 55 Comfort Warnings
  ZoneAveraged,                           !- Mean Radiant Temperature Calculation Type
  ,                                       !- Surface Name/Angle Factor List Name
  WORK_EFF_SCH,                           !- Work Efficiency Schedule Name
  ,                                       !- Clothing Insulation Calculation Method
  ,                                       !- Clothing Insulation Calculation Method Schedule Name
  CLOTHING_SCH,                           !- Clothing Insulation Schedule Name
  AIR_VELO_SCH,                           !- Air Velocity Schedule Name
  AdaptiveASH55,                          !- Thermal Comfort Model 1 Type
  FANGER;                                 !- Thermal Comfort Model 2 Type

Schedule:Compact,
  BLDG_OCC_SCH,                           !- Name
  Fraction,                               !- Schedule Type Limits Name
  Through: 7/1,                           !- Field 1
  For: Weekdays,                          !- Field 2
  Until: 08:00,                           !- Field 3
  0,                                      !- Field 4
  Until: 09:00,                           !- Field 5
  0.1,                                    !- Field 6
  Until: 12:00,                           !- Field 7
  0.9,                                    !- Field 8
  Until: 16:00,                           !- Field 9
  0.8,                                    !- Field 10
  Until: 17:00,                           !- Field 11
  0.5,                                    !- Field 12
  Until: 18:00,                           !- Field 13
  0.2,                                    !- Field 14
  Until: 19:00,                           !- Field 15
  0.1,                                    !- Field 16
  Until: 24:00,                           !- Field 17
  0,                                      !- Field 18
  For: SummerDesignDay,                   !- Field 19
  Until: 09:00,                           !- Field 20
  0.000000001,                            !- Field 21
  Until: 16:00,                           !- Field 22
  0.95,                                   !- Field 23
  Until: 19:00,                           !- Field 24
  0.15,                                   !- Field 25
  Until: 24:00,                           !- Field 26
  0.000000001,                            !- Field 27
  For: WeekEnds WinterDesignDay Holidays AllOtherDays, !- Field 28
  Until: 24:00,                           !- Field 29
  0,                                      !- Field 30
  Through: 9/1,                           !- Field 31
  For: Weekdays,                          !- Field 32
  Until: 24:00,                           !- Field 33
  0,                                      !- Field 34
  For: SummerDesignDay,                   !- Field 35
  Until: 24:00,                           !- Field 36
  0.000000001,                            !- Field 37
  For: WeekEnds WinterDesignDay Holidays AllOtherDays, !- Field 38
  Until: 24:00,                           !- Field 39
  0,                                      !- Field 40
  Through: 12/31,                         !- Field 41
  For: Weekdays,                          !- Field 42
  Until: 08:00,                           !- Field 43
  0,                                      !- Field 44
  Until: 09:00,                           !- Field 45
  0.1,                                    !- Field 46
  Until: 12:00,                           !- Field 47
  0.9,                                    !- Field 48
  Until: 16:00,                           !- Field 49
  0.8,                                    !- Field 50
  Until: 17:00,                           !- Field 51
  0.5,                                    !- Field 52
  Until: 18:00,                           !- Field 53
  0.2,                                    !- Field 54
  Until: 19:00,                           !- Field 55
  0.1,                                    !- Field 56
  Until: 24:00,                           !- Field 57
  0,                                      !- Field 58
  For: SummerDesignDay,                   !- Field 59
  Until: 09:00,                           !- Field 60
  0.000000001,                            !- Field 61
  Until: 16:00,                           !- Field 62
  0.95,                                   !- Field 63
  Until: 19:00,                           !- Field 64
  0.15,                                   !- Field 65
  Until: 24:00,                           !- Field 66
  0.000000001,                            !- Field 67
  For: WeekEnds WinterDesignDay Holidays AllOtherDays, !- Field 68
  Until: 24:00,                           !- Field 69
  0;                                      !- Field 70

Schedule:Compact,
  ACTIVITY_SCH,                           !- Name
  ActivityLevel,                          !- Schedule Type Limits Name
  Through: 12/31,                         !- Field 1
  For: AllDays,                           !- Field 2
  Until: 24:00,                           !- Field 3
  120;                                    !- Field 4

ScheduleTypeLimits,
  ActivityLevel,                          !- Name
  0,                                      !- Lower Limit Value {BasedOnField A3}
  ,                                       !- Upper Limit Value {BasedOnField A3}
  Continuous,                             !- Numeric Type
  activitylevel;                          !- Unit Type

Schedule:Compact,
  WORK_EFF_SCH,                           !- Name
  Fraction,                               !- Schedule Type Limits Name
  Through: 12/31,                         !- Field 1
  For: AllDays,                           !- Field 2
  Until: 24:00,                           !- Field 3
  0;                                      !- Field 4

Schedule:Compact,
  CLOTHING_SCH,                           !- Name
  Any Number,                             !- Schedule Type Limits Name
  Through: 04/30,                         !- Field 1
  For: AllDays,                           !- Field 2
  Until: 24:00,                           !- Field 3
  1.1,                                    !- Field 4
  Through: 09/30,                         !- Field 5
  For: AllDays,                           !- Field 6
  Until: 24:00,                           !- Field 7
  0.6,                                    !- Field 8
  Through: 12/31,                         !- Field 9
  For: AllDays,                           !- Field 10
  Until: 24:00,                           !- Field 11
  1.1;                                    !- Field 12

ScheduleTypeLimits,
  Any Number;                             !- Name

Schedule:Compact,
  AIR_VELO_SCH,                           !- Name
  Velocity,                               !- Schedule Type Limits Name
  Through: 12/31,                         !- Field 1
  For: AllDays,                           !- Field 2
  Until: 24:00,                           !- Field 3
  0.2;                                    !- Field 4

ScheduleTypeLimits,
  Velocity,                               !- Name
  0,                                      !- Lower Limit Value {BasedOnField A3}
  ,                                       !- Upper Limit Value {BasedOnField A3}
  Continuous,                             !- Numeric Type
  velocity;                               !- Unit Type

ElectricEquipment,
  Bath Electric Equipment,                !- Name
  Bathroom_spacetype,                     !- Zone or ZoneList or Space or SpaceList Name
  BLDG_EQUIP_SCH,                         !- Schedule Name
  Watts/Area,                             !- Design Level Calculation Method
  ,                                       !- Design Level {W}
  2.5,                                    !- Watts per Zone Floor Area {W/m2}
  ,                                       !- Watts per Person {W/person}
  0,                                      !- Fraction Latent
  0.3,                                    !- Fraction Radiant
  0,                                      !- Fraction Lost
  General;                                !- End-Use Subcategory

Schedule:Compact,
  BLDG_EQUIP_SCH,                         !- Name
  Fraction,                               !- Schedule Type Limits Name
  Through: 12/31,                         !- Field 1
  For: SummerDesignDay,                   !- Field 2
  Until: 08:00,                           !- Field 3
  0.35,                                   !- Field 4
  Until: 19:00,                           !- Field 5
  1,                                      !- Field 6
  Until: 24:00,                           !- Field 7
  0.35,                                   !- Field 8
  For: WinterDesignDay,                   !- Field 9
  Until: 24:00,                           !- Field 10
  0,                                      !- Field 11
  For: Weekdays,                          !- Field 12
  Until: 08:00,                           !- Field 13
  0.25,                                   !- Field 14
  Until: 09:00,                           !- Field 15
  0.5,                                    !- Field 16
  Until: 16:00,                           !- Field 17
  0.9,                                    !- Field 18
  Until: 17:00,                           !- Field 19
  0.7,                                    !- Field 20
  Until: 19:00,                           !- Field 21
  0.5,                                    !- Field 22
  Until: 24:00,                           !- Field 23
  0.25,                                   !- Field 24
  For: WeekEnds Holidays AllOtherDays,    !- Field 25
  Until: 24:00,                           !- Field 26
  0.15;                                   !- Field 27

ZoneInfiltration:DesignFlowRate,
  School Infiltration 7,                  !- Name
  Bathroom_spacetype,                     !- Zone or ZoneList or Space or SpaceList Name
  INFIL_SCH_PNNL,                         !- Schedule Name
  Flow/ExteriorArea,                      !- Design Flow Rate Calculation Method
  ,                                       !- Design Flow Rate {m3/s}
  ,                                       !- Flow Rate per Floor Area {m3/s-m2}
  0.00087,                                !- Flow Rate per Exterior Surface Area {m3/s-m2}
  ,                                       !- Air Changes per Hour {1/hr}
  0,                                      !- Constant Term Coefficient
  ,                                       !- Temperature Term Coefficient
  0.224,                                  !- Velocity Term Coefficient
  ;                                       !- Velocity Squared Term Coefficient

BuildingSurface:Detailed,
  Face 195,                               !- Name
  Floor,                                  !- Surface Type
  PrimarySchool_Floor,                    !- Construction Name
  Bath_1,                                 !- Zone Name
  Bath_1_Space,                           !- Space Name
  Surface,                                !- Outside Boundary Condition
  Face 13,                                !- Outside Boundary Condition Object
  NoSun,                                  !- Sun Exposure
  NoWind,                                 !- Wind Exposure
  ,                                       !- View Factor to Ground
  ,                                       !- Number of Vertices
  20.5, 20, 3,                            !- X,Y,Z Vertex 1 {m}
  20.5, 12, 3,                            !- X,Y,Z Vertex 2 {m}
  18, 12, 3,                              !- X,Y,Z Vertex 3 {m}
  18, 20, 3;                              !- X,Y,Z Vertex 4 {m}

BuildingSurface:Detailed,
  Face 196,                               !- Name
  Roof,                                   !- Surface Type
  PrimarySchool_Roof,                     !- Construction Name
  Bath_1,                                 !- Zone Name
  Bath_1_Space,                           !- Space Name
  Outdoors,                               !- Outside Boundary Condition
  ,                                       !- Outside Boundary Condition Object
  SunExposed,                             !- Sun Exposure