
OS:Version,
  {7295d6b6-7bd3-4777-ba29-e5bae144d6b7}, !- Handle
  3.7.0;                                  !- Version Identifier

OS:Site,
  {8d6300c2-29c7-4694-ad20-ebb32e976e6b}, !- Handle
  MONTREAL INTL A,                        !- Name
  45.47,                                  !- Latitude {deg}
  -73.74,                                 !- Longitude {deg}
  -5,                                     !- Time Zone {hr}
  36,                                     !- Elevation {m}
  City;                                   !- Terrain

OS:SimulationControl,
  {39cc1775-ab44-4b85-af57-377a77a61c49}, !- Handle
  Yes,                                    !- Do Zone Sizing Calculation
  No,                                     !- Do System Sizing Calculation
  Yes,                                    !- Do Plant Sizing Calculation
  No,                                     !- Run Simulation for Sizing Periods
  Yes,                                    !- Run Simulation for Weather File Run Periods
  0.04,                                   !- Loads Convergence Tolerance Value {W}
  0.4,                                    !- Temperature Convergence Tolerance Value {deltaC}
  FullInteriorAndExterior,                !- Solar Distribution
  25,                                     !- Maximum Number of Warmup Days
  6,                                      !- Minimum Number of Warmup Days
  No,                                     !- Do HVAC Sizing Simulation for Sizing Periods
  1;                                      !- Maximum Number of HVAC Sizing Simulation Passes

OS:Building,
  {238887f2-8ce9-4c82-adf9-58e22ffeb0a0}, !- Handle
  SchoolPrimary,                          !- Name
  ,                                       !- Building Sector Type
  0,                                      !- North Axis {deg}
  ,                                       !- Nominal Floor to Floor Height {m}
  ,                                       !- Space Type Name
  ,                                       !- Default Construction Set Name
  ;                                       !- Default Schedule Set Name

OS:ShadowCalculation,
  {3e977f3a-efd8-44c1-b352-3c4fb4cbab4a}, !- Handle
  PolygonClipping,                        !- Shading Calculation Method
  Periodic,                               !- Shading Calculation Update Frequency Method
  30,                                     !- Shading Calculation Update Frequency
  15000,                                  !- Maximum Figures in Shadow Overlap Calculations
  ,                                       !- Polygon Clipping Algorithm
  512,                                    !- Pixel Counting Resolution
  ,                                       !- Sky Diffuse Modeling Algorithm
  No,                                     !- Output External Shading Calculation Results
  No,                                     !- Disable Self-Shading Within Shading Zone Groups
  No;                                     !- Disable Self-Shading From Shading Zone Groups to Other Zones

OS:Schedule:Compact,
  {2f9ce582-a815-4191-9dc7-2ec9b658c0cd}, !- Handle
  HW-Loop-Temp-Schedule,                  !- Name
  {9bd46986-6fc1-4761-bd31-b866504d036e}, !- Schedule Type Limits Name
  Through: 12/31,                         !- Field 1
  For: AllDays,                           !- Field 2
  Until: 24:00,                           !- Field 3
  45;                                     !- Field 4

OS:ScheduleTypeLimits,
  {9bd46986-6fc1-4761-bd31-b866504d036e}, !- Handle
  Temperature,                            !- Name
  -60,                                    !- Lower Limit Value
  200,                                    !- Upper Limit Value
  CONTINUOUS,                             !- Numeric Type
  Temperature;                            !- Unit Type

OS:HeatBalanceAlgorithm,
  {dca057e8-5c1a-4a94-b2d5-661c3637641b}, !- Handle
  ConductionTransferFunction,             !- Algorithm
  200;                                    !- Surface Temperature Upper Limit {C}

OS:Surface,
  {78e1be82-4161-468b-a18a-116173b19132}, !- Handle
  Face 44,                                !- Name
  Wall,                                   !- Surface Type
  {808cbc1a-f555-4b99-a371-9102663daf65}, !- Construction Name
  {6924c03f-b104-4f0b-8678-9fc341fda992}, !- Space Name
  Surface,                                !- Outside Boundary Condition
  {a5e34f31-186c-4e8d-855b-f882a1c541d2}, !- Outside Boundary Condition Object
  NoSun,                                  !- Sun Exposure
  NoWind,                                 !- Wind Exposure
  ,                                       !- View Factor to Ground
  ,                                       !- Number of Vertices
  37, 12, 3,                              !- X,Y,Z Vertex 1 {m}
  37, 12, 0,                              !- X,Y,Z Vertex 2 {m}
  33, 12, 0,                              !- X,Y,Z Vertex 3 {m}
  33, 12, 3;                              !- X,Y,Z Vertex 4 {m}

OS:Construction,
  {808cbc1a-f555-4b99-a371-9102663daf65}, !- Handle
  PrimarySchool_Int_Wall,                 !- Name
  {7d932118-10ca-4517-8fa2-0b8f85bd9ab4}, !- Surface Rendering Name
  {04d0b5ce-8b2a-4466-b884-aca28bb1c3dc}, !- Layer 1
  {04d0b5ce-8b2a-4466-b884-aca28bb1c3dc}; !- Layer 2

OS:Material,
  {04d0b5ce-8b2a-4466-b884-aca28bb1c3dc}, !- Handle
  Gypsum plate Int Wall,                  !- Name
  Smooth,                                 !- Roughness
  0.0127,                                 !- Thickness {m}
  0.16,                                   !- Conductivity {W/m-K}
  784.9,                                  !- Density {kg/m3}
  830,                                    !- Specific Heat {J/kg-K}
  0.9,                                    !- Thermal Absorptance
  0.3,                                    !- Solar Absorptance
  0.5;                                    !- Visible Absorptance

OS:ThermalZone,
  {a02090a0-9d23-46a7-911a-23ffc5a00222}, !- Handle
  Corridor_1,                             !- Name
  1,                                      !- Multiplier
  ,                                       !- Ceiling Height {m}
  ,                                       !- Volume {m3}
  ,                                       !- Floor Area {m2}
  ,                                       !- Zone Inside Convection Algorithm
  ,                                       !- Zone Outside Convection Algorithm
  ,                                       !- Zone Conditioning Equipment List Name
  {0d3ec60f-db16-4747-a561-a228877d49a3}, !- Zone Air Inlet Port List
  {5a5db56a-d4a8-4d3f-8a7b-aad8b82f2d0f}, !- Zone Air Exhaust Port List
  {7a4182e0-6fcb-4e7d-a9e4-de37745b885f}, !- Zone Air Node Name
  {bf2a4a21-c371-4bb5-b9b8-56fa36583bb4}, !- Zone Return Air Port List
  ,                                       !- Primary Daylighting Control Name
  ,                                       !- Fraction of Zone Controlled by Primary Daylighting Control
  ,                                       !- Secondary Daylighting Control Name
  ,                                       !- Fraction of Zone Controlled by Secondary Daylighting Control
  ,                                       !- Illuminance Map Name
  {20f6fc5e-0d88-429f-b8be-bece06758e9a}, !- Group Rendering Name
  {820c26be-2f73-40ec-86a8-792f01913d1d}, !- Thermostat Name
  No;                                     !- Use Ideal Air Loads

OS:Node,
  {d647e697-f2ba-452f-a157-41c8830af7f0}, !- Handle
  Node 1,                                 !- Name
  {7a4182e0-6fcb-4e7d-a9e4-de37745b885f}, !- Inlet Port
  ;                                       !- Outlet Port

OS:Connection,
  {7a4182e0-6fcb-4e7d-a9e4-de37745b885f}, !- Handle
  {a02090a0-9d23-46a7-911a-23ffc5a00222}, !- Source Object
  11,                                     !- Outlet Port
  {d647e697-f2ba-452f-a157-41c8830af7f0}, !- Target Object
  2;                                      !- Inlet Port

OS:PortList,
  {0d3ec60f-db16-4747-a561-a228877d49a3}, !- Handle
  {a02090a0-9d23-46a7-911a-23ffc5a00222}; !- HVAC Component

OS:PortList,
  {5a5db56a-d4a8-4d3f-8a7b-aad8b82f2d0f}, !- Handle
  {a02090a0-9d23-46a7-911a-23ffc5a00222}; !- HVAC Component

OS:PortList,
  {bf2a4a21-c371-4bb5-b9b8-56fa36583bb4}, !- Handle
  {a02090a0-9d23-46a7-911a-23ffc5a00222}; !- HVAC Component

OS:Sizing:Zone,
  {78fb2838-40e1-4d75-ba5c-2d4591fd4733}, !- Handle
  {a02090a0-9d23-46a7-911a-23ffc5a00222}, !- Zone or ZoneList Name
  SupplyAirTemperature,                   !- Zone Cooling Design Supply Air Temperature Input Method
  12.8,                                   !- Zone Cooling Design Supply Air Temperature {C}
  11.11,                                  !- Zone Cooling Design Supply Air Temperature Difference {deltaC}
  SupplyAirTemperature,                   !- Zone Heating Design Supply Air Temperature Input Method
  50,                                     !- Zone Heating Design Supply Air Temperature {C}
  11.11,                                  !- Zone Heating Design Supply Air Temperature Difference {deltaC}
  0.0085,                                 !- Zone Cooling Design Supply Air Humidity Ratio {kg-H2O/kg-air}
  0.008,                                  !- Zone Heating Design Supply Air Humidity Ratio {kg-H2O/kg-air}
  ,                                       !- Zone Heating Sizing Factor
  ,                                       !- Zone Cooling Sizing Factor
  DesignDay,                              !- Cooling Design Air Flow Method
  ,                                       !- Cooling Design Air Flow Rate {m3/s}
  ,                                       !- Cooling Minimum Air Flow per Zone Floor Area {m3/s-m2}
  ,                                       !- Cooling Minimum Air Flow {m3/s}
  ,                                       !- Cooling Minimum Air Flow Fraction
  DesignDay,                              !- Heating Design Air Flow Method
  ,                                       !- Heating Design Air Flow Rate {m3/s}
  ,                                       !- Heating Maximum Air Flow per Zone Floor Area {m3/s-m2}
  ,                                       !- Heating Maximum Air Flow {m3/s}
  ,                                       !- Heating Maximum Air Flow Fraction
  No,                                     !- Account for Dedicated Outdoor Air System
  NeutralSupplyAir,                       !- Dedicated Outdoor Air System Control Strategy
  autosize,                               !- Dedicated Outdoor Air Low Setpoint Temperature for Design {C}
  autosize,                               !- Dedicated Outdoor Air High Setpoint Temperature for Design {C}
  Sensible Load Only No Latent Load,      !- Zone Load Sizing Method
  HumidityRatioDifference,                !- Zone Latent Cooling Design Supply Air Humidity Ratio Input Method
  ,                                       !- Zone Dehumidification Design Supply Air Humidity Ratio {kgWater/kgDryAir}
  0.005,                                  !- Zone Cooling Design Supply Air Humidity Ratio Difference {kgWater/kgDryAir}
  HumidityRatioDifference,                !- Zone Latent Heating Design Supply Air Humidity Ratio Input Method
  ,                                       !- Zone Humidification Design Supply Air Humidity Ratio {kgWater/kgDryAir}
  0.005;                                  !- Zone Humidification Design Supply Air Humidity Ratio Difference {kgWater/kgDryAir}

OS:ZoneHVAC:EquipmentList,
  {f23d91de-db95-4fbe-8d6f-09d3ebcec5c2}, !- Handle
  Zone HVAC Equipment List 1,             !- Name
  {a02090a0-9d23-46a7-911a-23ffc5a00222}, !- Thermal Zone
  ,                                       !- Load Distribution Scheme
  {6f6456c1-479c-4551-ae65-50091af96cc9}, !- Zone Equipment 1
  1,                                      !- Zone Equipment Cooling Sequence 1
  1,                                      !- Zone Equipment Heating or No-Load Sequence 1
  ,                                       !- Zone Equipment Sequential Cooling Fraction Schedule Name 1
  ;                                       !- Zone Equipment Sequential Heating Fraction Schedule Name 1

OS:Space,
  {6924c03f-b104-4f0b-8678-9fc341fda992}, !- Handle
  Corridor_1_Space,                       !- Name
  {eae5e45a-8251-4525-b4b4-22c25182836f}, !- Space Type Name
  ,                                       !- Default Construction Set Name
  ,                                       !- Default Schedule Set Name
  0,                                      !- Direction of Relative North {deg}
  0,                                      !- X Origin {m}
  0,                                      !- Y Origin {m}
  0,                                      !- Z Origin {m}
  ,                                       !- Building Story Name
  {a02090a0-9d23-46a7-911a-23ffc5a00222}, !- Thermal Zone Name
  Yes;                                    !- Part of Total Floor Area

OS:ZoneAirMassFlowConservation,
  {841f523c-0f70-407e-9057-9ed759d1352a}, !- Handle
  None,                                   !- Adjust Zone Mixing and Return For Air Mass Flow Balance
  AddInfiltrationFlow,                    !- Infiltration Balancing Method
  AllZones;                               !- Infiltration Balancing Zones

OS:InternalMass:Definition,
  {3d2d89bc-22ff-4074-9b70-c9a3981e47b7}, !- Handle
  Cafeteria_InternalMass_Definition,      !- Name
  {20dac1fa-3523-4fc9-921f-9b0b1fac11ff}, !- Construction Name
  SurfaceArea,                            !- Design Level Calculation Method
  240,                                    !- Surface Area {m2}
  ,                                       !- Surface Area per Space Floor Area {dimensionless}
  ;                                       !- Surface Area per Person {m2/person}

OS:Construction,
  {20dac1fa-3523-4fc9-921f-9b0b1fac11ff}, !- Handle
  PrimarySchool_InteriorFurnishings,      !- Name
  {49b478fd-0e94-448b-a6d1-2b57a8b3d6c9}, !- Surface Rendering Name
  {3ae9bbed-4bc9-42e1-a766-82acc4afa7b9}; !- Layer 1

OS:Material,
  {3ae9bbed-4bc9-42e1-a766-82acc4afa7b9}, !- Handle
  Std Wood,                               !- Name
  MediumSmooth,                           !- Roughness
  0.15,                                   !- Thickness {m}
  0.12,                                   !- Conductivity {W/m-K}
  540,                                    !- Density {kg/m3}
  1210,                                   !- Specific Heat {J/kg-K}
  0.9,                                    !- Thermal Absorptance
  0.5,                                    !- Solar Absorptance
  0.5;                                    !- Visible Absorptance

OS:ThermalZone,
  {ae41e86a-5ac7-4dac-a595-57c863887691}, !- Handle
  Cafeteria,                              !- Name
  1,                                      !- Multiplier
  ,                                       !- Ceiling Height {m}
  ,                                       !- Volume {m3}
  Autocalculate,                          !- Floor Area {m2}
  ,                                       !- Zone Inside Convection Algorithm
  ,                                       !- Zone Outside Convection Algorithm
  ,                                       !- Zone Conditioning Equipment List Name
  {a4e4d53a-75db-418e-8372-c09cb4f2c8eb}, !- Zone Air Inlet Port List
  {8c6e9047-a032-4a41-a62c-9a9476a2aa27}, !- Zone Air Exhaust Port List
  {434e6bef-6c74-4f68-8514-230bc61efc95}, !- Zone Air Node Name
  {f94abf92-d6f0-413f-84ba-dffde031bd04}, !- Zone Return Air Port List
  ,                                       !- Primary Daylighting Control Name
  ,                                       !- Fraction of Zone Controlled by Primary Daylighting Control
  ,                                       !- Secondary Daylighting Control Name
  ,                                       !- Fraction of Zone Controlled by Secondary Daylighting Control
  ,                                       !- Illuminance Map Name
  {c762f155-c321-4c6b-8810-b74ddb2109ce}, !- Group Rendering Name
  {08a1e6b0-a597-4004-b23d-cf619412f788}, !- Thermostat Name
  No;                                     !- Use Ideal Air Loads

OS:Node,
  {07a1445b-791a-4ddd-be83-f2e23477eead}, !- Handle
  Node 2,                                 !- Name
  {434e6bef-6c74-4f68-8514-230bc61efc95}, !- Inlet Port
  ;                                       !- Outlet Port

OS:Connection,
  {434e6bef-6c74-4f68-8514-230bc61efc95}, !- Handle
  {ae41e86a-5ac7-4dac-a595-57c863887691}, !- Source Object
  11,                                     !- Outlet Port
  {07a1445b-791a-4ddd-be83-f2e23477eead}, !- Target Object
  2;                                      !- Inlet Port

OS:PortList,
  {a4e4d53a-75db-418e-8372-c09cb4f2c8eb}, !- Handle
  {ae41e86a-5ac7-4dac-a595-57c863887691}, !- HVAC Component
  {a64a8e86-a25c-4e63-ac72-b4bc0cbb878f}; !- Port 1

OS:PortList,
  {8c6e9047-a032-4a41-a62c-9a9476a2aa27}, !- Handle
  {ae41e86a-5ac7-4dac-a595-57c863887691}; !- HVAC Component

OS:PortList,
  {f94abf92-d6f0-413f-84ba-dffde031bd04}, !- Handle
  {ae41e86a-5ac7-4dac-a595-57c863887691}, !- HVAC Component
  {73790243-4387-4768-bc58-c2819b2088f2}; !- Port 1

OS:Sizing:Zone,
  {adf6243b-6dc6-431f-897c-92cb70db737c}, !- Handle
  {ae41e86a-5ac7-4dac-a595-57c863887691}, !- Zone or ZoneList Name
  SupplyAirTemperature,                   !- Zone Cooling Design Supply Air Temperature Input Method
  12.8,                                   !- Zone Cooling Design Supply Air Temperature {C}
  11.11,                                  !- Zone Cooling Design Supply Air Temperature Difference {deltaC}
  SupplyAirTemperature,                   !- Zone Heating Design Supply Air Temperature Input Method
  50,                                     !- Zone Heating Design Supply Air Temperature {C}
  11,                                     !- Zone Heating Design Supply Air Temperature Difference {deltaC}
  0.0085,                                 !- Zone Cooling Design Supply Air Humidity Ratio {kg-H2O/kg-air}
  0.008,                                  !- Zone Heating Design Supply Air Humidity Ratio {kg-H2O/kg-air}
  ,                                       !- Zone Heating Sizing Factor
  ,                                       !- Zone Cooling Sizing Factor
  DesignDay,                              !- Cooling Design Air Flow Method
  ,                                       !- Cooling Design Air Flow Rate {m3/s}
  ,                                       !- Cooling Minimum Air Flow per Zone Floor Area {m3/s-m2}
  ,                                       !- Cooling Minimum Air Flow {m3/s}
  ,                                       !- Cooling Minimum Air Flow Fraction
  DesignDay,                              !- Heating Design Air Flow Method
  ,                                       !- Heating Design Air Flow Rate {m3/s}
  ,                                       !- Heating Maximum Air Flow per Zone Floor Area {m3/s-m2}
  ,                                       !- Heating Maximum Air Flow {m3/s}
  0.3,                                    !- Heating Maximum Air Flow Fraction
  Yes,                                    !- Account for Dedicated Outdoor Air System
  NeutralSupplyAir,                       !- Dedicated Outdoor Air System Control Strategy
  17,                                     !- Dedicated Outdoor Air Low Setpoint Temperature for Design {C}
  18,                                     !- Dedicated Outdoor Air High Setpoint Temperature for Design {C}
  Sensible Load Only No Latent Load,      !- Zone Load Sizing Method
  HumidityRatioDifference,                !- Zone Latent Cooling Design Supply Air Humidity Ratio Input Method
  ,                                       !- Zone Dehumidification Design Supply Air Humidity Ratio {kgWater/kgDryAir}
  0.005,                                  !- Zone Cooling Design Supply Air Humidity Ratio Difference {kgWater/kgDryAir}
  HumidityRatioDifference,                !- Zone Latent Heating Design Supply Air Humidity Ratio Input Method
  ,                                       !- Zone Humidification Design Supply Air Humidity Ratio {kgWater/kgDryAir}
  0.005;                                  !- Zone Humidification Design Supply Air Humidity Ratio Difference {kgWater/kgDryAir}

OS:ZoneHVAC:EquipmentList,
  {9cda563f-0952-4d35-9f1b-bef7868af058}, !- Handle
  Zone HVAC Equipment List 2,             !- Name
  {ae41e86a-5ac7-4dac-a595-57c863887691}, !- Thermal Zone
  ,                                       !- Load Distribution Scheme
  {cbdec666-1b5a-412e-bac3-230051cd0c71}, !- Zone Equipment 1
  1,                                      !- Zone Equipment Cooling Sequence 1
  1,                                      !- Zone Equipment Heating or No-Load Sequence 1
  ,                                       !- Zone Equipment Sequential Cooling Fraction Schedule Name 1
  ,                                       !- Zone Equipment Sequential Heating Fraction Schedule Name 1
  {8c73bf72-f0e3-4c29-86fa-9cb18aaf2f90}, !- Zone Equipment 2
  2,                                      !- Zone Equipment Cooling Sequence 2
  2,                                      !- Zone Equipment Heating or No-Load Sequence 2
  ,                                       !- Zone Equipment Sequential Cooling Fraction Schedule Name 2
  ;                                       !- Zone Equipment Sequential Heating Fraction Schedule Name 2

OS:Space,
  {51d59c75-e488-4be0-8b4e-c4ccd7ed1e18}, !- Handle
  Cafeteria_Space,                        !- Name
  {1f0c7324-58db-4cb2-9609-639459fc06e5}, !- Space Type Name
  ,                                       !- Default Construction Set Name
  ,                                       !- Default Schedule Set Name
  0,                                      !- Direction of Relative North {deg}
  0,                                      !- X Origin {m}
  0,                                      !- Y Origin {m}
  0,                                      !- Z Origin {m}
  ,                                       !- Building Story Name
  {ae41e86a-5ac7-4dac-a595-57c863887691}, !- Thermal Zone Name
  Yes,                                    !- Part of Total Floor Area
  {a0a9ea63-0b06-405c-b889-d6a13ef59ddf}; !- Design Specification Outdoor Air Object Name

OS:Timestep,
  {be5e003d-e4b4-4cf4-a2b9-192dcf5abdd5}, !- Handle
  6;                                      !- Number of Timesteps per Hour

OS:ConvergenceLimits,
  {e250c428-52ec-4223-89ea-0fefb6513fc3}, !- Handle
  1,                                      !- Minimum System Timestep {minutes}
  20;                                     !- Maximum HVAC Iterations

OS:SizingPeriod:DesignDay,
  {b05a0205-a2b8-45db-8684-d5f1eaf4b75a}, !- Handle
  Rochester International Arpt Ann Htg 99.6% Condns DB, !- Name
  -22,                                    !- Maximum Dry-Bulb Temperature {C}
  0,                                      !- Daily Dry-Bulb Temperature Range {deltaC}
  96634,                                  !- Barometric Pressure {Pa}
  5.5,                                    !- Wind Speed {m/s}
  310,                                    !- Wind Direction {deg}
  0,                                      !- Sky Clearness
  No,                                     !- Rain Indicator
  No,                                     !- Snow Indicator
  21,                                     !- Day of Month
  1,                                      !- Month
  WinterDesignDay,                        !- Day Type
  No,                                     !- Daylight Saving Time Indicator
  Wetbulb,                                !- Humidity Condition Type
  ,                                       !- Humidity Condition Day Schedule Name
  -22,                                    !- Wetbulb or DewPoint at Maximum Dry-Bulb {C}
  ,                                       !- Humidity Ratio at Maximum Dry-Bulb {kgWater/kgDryAir}
  ,                                       !- Enthalpy at Maximum Dry-Bulb {J/kg}
  DefaultMultipliers,                     !- Dry-Bulb Temperature Range Modifier Type
  ,                                       !- Dry-Bulb Temperature Range Modifier Day Schedule Name
  ASHRAEClearSky;                         !- Solar Model Indicator

OS:SizingPeriod:DesignDay,
  {505da026-fa18-4ba5-9023-23cc028aa938}, !- Handle
  Rochester International Arpt Ann Clg .4% Condns DB=>MWB, !- Name
  32,                                     !- Maximum Dry-Bulb Temperature {C}
  10.6,                                   !- Daily Dry-Bulb Temperature Range {deltaC}
  96634,                                  !- Barometric Pressure {Pa}
  6.7,                                    !- Wind Speed {m/s}
  200,                                    !- Wind Direction {deg}
  ,                                       !- Sky Clearness
  No,                                     !- Rain Indicator
  No,                                     !- Snow Indicator
  21,                                     !- Day of Month
  7,                                      !- Month
  SummerDesignDay,                        !- Day Type
  No,                                     !- Daylight Saving Time Indicator
  Wetbulb,                                !- Humidity Condition Type
  ,                                       !- Humidity Condition Day Schedule Name
  23.1,                                   !- Wetbulb or DewPoint at Maximum Dry-Bulb {C}
  ,                                       !- Humidity Ratio at Maximum Dry-Bulb {kgWater/kgDryAir}
  ,                                       !- Enthalpy at Maximum Dry-Bulb {J/kg}
  DefaultMultipliers,                     !- Dry-Bulb Temperature Range Modifier Type
  ,                                       !- Dry-Bulb Temperature Range Modifier Day Schedule Name
  ASHRAETau,                              !- Solar Model Indicator
  ,                                       !- Beam Solar Day Schedule Name
  ,                                       !- Diffuse Solar Day Schedule Name
  0.404,                                  !- ASHRAE Clear Sky Optical Depth for Beam Irradiance {dimensionless}
  2.226;                                  !- ASHRAE Clear Sky Optical Depth for Diffuse Irradiance {dimensionless}

OS:RunPeriod,
  {7f2cd3c5-2c59-4b3b-a470-8e9edf767382}, !- Handle
  RUNPERIOD 1,                            !- Name
  1,                                      !- Begin Month
  1,                                      !- Begin Day of Month
  12,                                     !- End Month
  31,                                     !- End Day of Month
  No,                                     !- Use Weather File Holidays and Special Days
  No,                                     !- Use Weather File Daylight Saving Period
  No,                                     !- Apply Weekend Holiday Rule
  Yes,                                    !- Use Weather File Rain Indicators
  Yes,                                    !- Use Weather File Snow Indicators
  ;                                       !- Number of Times Runperiod to be Repeated

OS:YearDescription,
  {1ee10283-7df0-4cec-88e9-597190198093}, !- Handle
  ,                                       !- Calendar Year
  Sunday;                                 !- Day of Week for Start Day

OS:Surface,
  {145d86e4-ea44-4a74-a3a9-c3d43dd9c267}, !- Handle
  Face 243,                               !- Name
  Wall,                                   !- Surface Type
  {808cbc1a-f555-4b99-a371-9102663daf65}, !- Construction Name
  {71495f67-a8f3-4bdb-9f26-6181b438d1df}, !- Space Name
  Surface,                                !- Outside Boundary Condition
  {cbaed031-c558-4e96-9caf-48621732608d}, !- Outside Boundary Condition Object
  NoSun,                                  !- Sun Exposure
  NoWind,                                 !- Wind Exposure
  ,                                       !- View Factor to Ground
  ,                                       !- Number of Vertices
  35.5, 12, 6,                            !- X,Y,Z Vertex 1 {m}
  35.5, 12, 3,                            !- X,Y,Z Vertex 2 {m}
  35.5, 20, 3,                            !- X,Y,Z Vertex 3 {m}
  35.5, 20, 6;                            !- X,Y,Z Vertex 4 {m}

OS:ThermalZone,
  {73fddf68-98bf-411d-b38b-1836b47bbda2}, !- Handle
  Class_9,                                !- Name
  1,                                      !- Multiplier
  ,                                       !- Ceiling Height {m}
  ,                                       !- Volume {m3}
  ,                                       !- Floor Area {m2}
  ,                                       !- Zone Inside Convection Algorithm
  ,                                       !- Zone Outside Convection Algorithm
  ,                                       !- Zone Conditioning Equipment List Name
  {8afcf8ca-2e29-47b6-b725-581ba621739b}, !- Zone Air Inlet Port List
  {57ea34e0-a65d-4110-baf7-aa2ed8377d4d}, !- Zone Air Exhaust Port List
  {39ba4799-fb63-4b33-ada7-8fbfd0159e9a}, !- Zone Air Node Name
  {264207bd-d85d-44e0-8c6d-1a92b507ce63}, !- Zone Return Air Port List
  {eb8f6ad8-7f69-42db-8955-618a3bcca3c6}, !- Primary Daylighting Control Name
  1,                                      !- Fraction of Zone Controlled by Primary Daylighting Control
  ,                                       !- Secondary Daylighting Control Name
  ,                                       !- Fraction of Zone Controlled by Secondary Daylighting Control
  ,                                       !- Illuminance Map Name
  {2a952c39-b477-4ea9-8d62-7deb437b7332}, !- Group Rendering Name
  {ced67a79-1aa6-4ca8-8765-9203b0e6b91c}, !- Thermostat Name
  No;                                     !- Use Ideal Air Loads

OS:Node,
  {00749b60-d517-4b50-a169-9fdd6bd948cb}, !- Handle
  Node 3,                                 !- Name
  {39ba4799-fb63-4b33-ada7-8fbfd0159e9a}, !- Inlet Port
  ;                                       !- Outlet Port

OS:Connection,
  {39ba4799-fb63-4b33-ada7-8fbfd0159e9a}, !- Handle
  {73fddf68-98bf-411d-b38b-1836b47bbda2}, !- Source Object
  11,                                     !- Outlet Port