
OS:Version,
  {f08bd2ac-681a-4e39-ae0a-039542553fdc}, !- Handle
  3.7.0;                                  !- Version Identifier

OS:Schedule:Constant,
  {d2d11ba9-6d19-45a1-8642-27f6da61762b}, !- Handle
  Always On Discrete,                     !- Name
  {35bb202f-f8b6-4b14-9bbd-855e00b62e1c}, !- Schedule Type Limits Name
  1;                                      !- Value

OS:ScheduleTypeLimits,
  {35bb202f-f8b6-4b14-9bbd-855e00b62e1c}, !- Handle
  Always On Discrete Limits,              !- Name
  0,                                      !- Lower Limit Value
  1,                                      !- Upper Limit Value
  Discrete,                               !- Numeric Type
  Availability;                           !- Unit Type

OS:ClimateZones,
  {8a3ac41c-57d4-48e4-a48e-1f232e262211}, !- Handle
  ASHRAE,                                 !- Climate Zone Institution Name 1
  ANSI/ASHRAE Standard 169,               !- Climate Zone Document Name 1
  2006,                                   !- Climate Zone Document Year 1
  6A,                                     !- Climate Zone Value 1
  CEC,                                    !- Climate Zone Institution Name 2
  California Climate Zone Descriptions,   !- Climate Zone Document Name 2
  1995,                                   !- Climate Zone Document Year 2
  6;                                      !- Climate Zone Value 2

OS:LifeCycleCost:Parameters,
  {1d4d0f18-e6dd-45c8-896c-f4f2a89e6ae5}, !- Handle
  FEMP,                                   !- Analysis Type
  ,                                       !- Discounting Convention
  ,                                       !- Inflation Approach
  ,                                       !- Real Discount Rate
  ,                                       !- Nominal Discount Rate
  ,                                       !- Inflation
  ,                                       !- Base Date Month
  ,                                       !- Base Date Year
  ,                                       !- Service Date Month
  ,                                       !- Service Date Year
  ,                                       !- Length of Study Period in Years
  ,                                       !- Tax Rate
  ,                                       !- Depreciation Method
  Yes;                                    !- Use NIST Fuel Escalation Rates

OS:YearDescription,
  {c1349a5a-d7e1-4ed9-8e5b-24480649c25c}, !- Handle
  ,                                       !- Calendar Year
  Sunday;                                 !- Day of Week for Start Day

OS:RadianceParameters,
  {8297fd56-36de-4b79-a182-b7636f4ae3e3}, !- Handle
  1,                                      !- Accumulated Rays per Record
  0,                                      !- Direct Threshold
  1,                                      !- Direct Certainty
  1,                                      !- Direct Jitter
  1,                                      !- Direct Pretest
  6,                                      !- Ambient Bounces VMX
  2,                                      !- Ambient Bounces DMX
  4050,                                   !- Ambient Divisions VMX
  512,                                    !- Ambient Divisions DMX
  256,                                    !- Ambient Supersamples
  0.001,                                  !- Limit Weight VMX
  0.001,                                  !- Limit Weight DMX
  500,                                    !- Klems Sampling Density
  146;                                    !- Sky Discretization Resolution

OS:SimulationControl,
  {7c57f4fc-548f-44e7-a438-1feca6a75629}, !- Handle
  Yes,                                    !- Do Zone Sizing Calculation
  Yes,                                    !- Do System Sizing Calculation
  Yes,                                    !- Do Plant Sizing Calculation
  ,                                       !- Run Simulation for Sizing Periods
  ,                                       !- Run Simulation for Weather File Run Periods
  ,                                       !- Loads Convergence Tolerance Value {W}
  ,                                       !- Temperature Convergence Tolerance Value {deltaC}
  ,                                       !- Solar Distribution
  ,                                       !- Maximum Number of Warmup Days
  ,                                       !- Minimum Number of Warmup Days
  Yes;                                    !- Do HVAC Sizing Simulation for Sizing Periods

OS:Sizing:Parameters,
  {ee365675-827e-489e-9a24-0f596988dec4}, !- Handle
  1.25,                                   !- Heating Sizing Factor
  1.15;                                   !- Cooling Sizing Factor

OS:ProgramControl,
  {8a7b938e-cdcb-40af-82b1-79c267c36bae}; !- Handle

OS:Timestep,
  {31824a36-2f0f-4919-a534-cdb00e20d2e0}, !- Handle
  6;                                      !- Number of Timesteps per Hour

OS:OutputControl:ReportingTolerances,
  {275082a5-6cfd-4756-972e-8810ab253e29}; !- Handle

OS:ConvergenceLimits,
  {fcca1605-8471-4f2f-a485-a59582311771}; !- Handle

OS:ShadowCalculation,
  {d875de65-75c7-4d9d-883e-07bd79421b67}, !- Handle
  PolygonClipping,                        !- Shading Calculation Method
  ,                                       !- Shading Calculation Update Frequency Method
  7,                                      !- Shading Calculation Update Frequency
  15000,                                  !- Maximum Figures in Shadow Overlap Calculations
  ,                                       !- Polygon Clipping Algorithm
  512,                                    !- Pixel Counting Resolution
  ,                                       !- Sky Diffuse Modeling Algorithm
  No,                                     !- Output External Shading Calculation Results
  No,                                     !- Disable Self-Shading Within Shading Zone Groups
  No;                                     !- Disable Self-Shading From Shading Zone Groups to Other Zones

OS:SurfaceConvectionAlgorithm:Inside,
  {5add9a33-b760-4e82-a0f9-3ae0e369b9c4}, !- Handle
  TARP;                                   !- Algorithm

OS:SurfaceConvectionAlgorithm:Outside,
  {0257be16-14fc-418e-bc73-178201ccc4ec}, !- Handle
  DOE-2;                                  !- Algorithm

OS:HeatBalanceAlgorithm,
  {5a22c4c4-a6a6-4769-b0a8-f79498f98a6d}, !- Handle
  ConductionTransferFunction,             !- Algorithm
  200;                                    !- Surface Temperature Upper Limit {C}

OS:ZoneAirHeatBalanceAlgorithm,
  {24c912f8-6f7f-4792-8ea0-a8d47b3c41a1}, !- Handle
  AnalyticalSolution,                     !- Algorithm
  ,                                       !- Do Space Heat Balance for Sizing
  ;                                       !- Do Space Heat Balance for Simulation

OS:ZoneAirContaminantBalance,
  {07e7d420-4b9b-4760-8a70-01b36aa6074f}; !- Handle

OS:ZoneCapacitanceMultiplier:ResearchSpecial,
  {91056672-db13-4057-9cb7-7ac44d24bfc5}, !- Handle
  ,                                       !- Temperature Capacity Multiplier
  ,                                       !- Humidity Capacity Multiplier
  ;                                       !- Carbon Dioxide Capacity Multiplier

OS:RunPeriod,
  {17c33f47-c9b9-463a-84bc-12596f349148}, !- Handle
  Run Period 1,                           !- Name
  1,                                      !- Begin Month
  1,                                      !- Begin Day of Month
  12,                                     !- End Month
  31,                                     !- End Day of Month
  ,                                       !- Use Weather File Holidays and Special Days
  ,                                       !- Use Weather File Daylight Saving Period
  ,                                       !- Apply Weekend Holiday Rule
  ,                                       !- Use Weather File Rain Indicators
  ,                                       !- Use Weather File Snow Indicators
  ;                                       !- Number of Times Runperiod to be Repeated

OS:Building,
  {e0ce3521-4e53-4eca-8017-2f1c8dec2b50}, !- Handle
  Building 1,                             !- Name
  ,                                       !- Building Sector Type
  ,                                       !- North Axis {deg}
  ,                                       !- Nominal Floor to Floor Height {m}
  ,                                       !- Space Type Name
  ,                                       !- Default Construction Set Name
  ,                                       !- Default Schedule Set Name
  ,                                       !- Standards Number of Stories
  ,                                       !- Standards Number of Above Ground Stories
  ,                                       !- Standards Template
  ,                                       !- Standards Building Type
  ,                                       !- Standards Number of Living Units
  ,                                       !- Relocatable
  ;                                       !- Nominal Floor to Ceiling Height {m}

OS:Facility,
  {b6e6be84-f909-42a5-9deb-ef70c0296721}; !- Handle

OS:Site,
  {f38b0e3c-04e1-4822-940e-9b46c436222c}, !- Handle
  Montreal Int'l,                         !- Name
  45.47,                                  !- Latitude {deg}
  -73.75,                                 !- Longitude {deg}
  -5,                                     !- Time Zone {hr}
  36,                                     !- Elevation {m}
  ;                                       !- Terrain

OS:Rendering:Color,
  {e4f26acb-2684-4155-b277-485476d32cbc}, !- Handle
  Rendering Color 1,                      !- Name
  78,                                     !- Rendering Red Value
  167,                                    !- Rendering Green Value
  222;                                    !- Rendering Blue Value

OS:Schedule:Ruleset,
  {7ce2dc48-7956-4830-ad19-b3e7ed344b78}, ! Handle
  MidriseApartment Apartment Light,       ! Name
  {c484d647-a8be-49b1-9cba-d32f00b74046}, ! Schedule Type Limits Name
  {f3b9ab95-aafe-49c5-a0ce-15d6e4c26cf4}, ! Default Day Schedule Name
  {c2eb770f-fc71-47d6-b5d7-b0e8c3a7333d}, ! Summer Design Day Schedule Name
  {6ef8b1e8-aa3d-466e-b543-f0aff2fecd4e}; ! Winter Design Day Schedule Name

OS:ScheduleTypeLimits,
  {c484d647-a8be-49b1-9cba-d32f00b74046}, ! Handle
  Fraction,                               ! Name
  0,                                      ! Lower Limit Value
  1,                                      ! Upper Limit Value
  CONTINUOUS;                             ! Numeric Type

OS:Schedule:Day,
  {f3b9ab95-aafe-49c5-a0ce-15d6e4c26cf4}, ! Handle
  MidriseApartment Apartment Light Default Schedule, ! Name
  {c484d647-a8be-49b1-9cba-d32f00b74046}, ! Schedule Type Limits Name
  ,                                       ! Interpolate to Timestep
  4,                                      !- Hour 1
  0,                                      !- Minute 1
  0.067,                                  !- Value Until Time 1
  5,                                      !- Hour 2
  0,                                      !- Minute 2
  0.187,                                  !- Value Until Time 2
  6,                                      !- Hour 3
  0,                                      !- Minute 3
  0.394,                                  !- Value Until Time 3
  7,                                      !- Hour 4
  0,                                      !- Minute 4
  0.44,                                   !- Value Until Time 4
  8,                                      !- Hour 5
  0,                                      !- Minute 5
  0.393,                                  !- Value Until Time 5
  9,                                      !- Hour 6
  0,                                      !- Minute 6
  0.172,                                  !- Value Until Time 6
  15,                                     !- Hour 7
  0,                                      !- Minute 7
  0.119,                                  !- Value Until Time 7
  16,                                     !- Hour 8
  0,                                      !- Minute 8
  0.206,                                  !- Value Until Time 8
  17,                                     !- Hour 9
  0,                                      !- Minute 9
  0.439,                                  !- Value Until Time 9
  18,                                     !- Hour 10
  0,                                      !- Minute 10
  0.616,                                  !- Value Until Time 10
  19,                                     !- Hour 11
  0,                                      !- Minute 11
  0.829,                                  !- Value Until Time 11
  20,                                     !- Hour 12
  0,                                      !- Minute 12
  0.986,                                  !- Value Until Time 12
  21,                                     !- Hour 13
  0,                                      !- Minute 13
  1,                                      !- Value Until Time 13
  22,                                     !- Hour 14
  0,                                      !- Minute 14
  0.692,                                  !- Value Until Time 14
  23,                                     !- Hour 15
  0,                                      !- Minute 15
  0.384,                                  !- Value Until Time 15
  24,                                     !- Hour 16
  0,                                      !- Minute 16
  0.16;                                   !- Value Until Time 16

OS:Schedule:Day,
  {c2eb770f-fc71-47d6-b5d7-b0e8c3a7333d}, ! Handle
  MidriseApartment Apartment Light Summer Design Day, ! Name
  {c484d647-a8be-49b1-9cba-d32f00b74046}, ! Schedule Type Limits Name
  ,                                       ! Interpolate to Timestep
  4,                                      ! Hour 1
  0,                                      ! Minute 1
  0.067000000000000004,                   ! Value Until Time 1
  5,                                      ! Hour 2
  0,                                      ! Minute 2
  0.187,                                  ! Value Until Time 2
  6,                                      ! Hour 3
  0,                                      ! Minute 3
  0.39400000000000002,                    ! Value Until Time 3
  7,                                      ! Hour 4
  0,                                      ! Minute 4
  0.44,                                   ! Value Until Time 4
  8,                                      ! Hour 5
  0,                                      ! Minute 5
  0.39300000000000002,                    ! Value Until Time 5
  9,                                      ! Hour 6
  0,                                      ! Minute 6
  0.17199999999999999,                    ! Value Until Time 6
  15,                                     ! Hour 7
  0,                                      ! Minute 7
  0.11899999999999999,                    ! Value Until Time 7
  16,                                     ! Hour 8
  0,                                      ! Minute 8
  0.20599999999999999,                    ! Value Until Time 8
  17,                                     ! Hour 9
  0,                                      ! Minute 9
  0.439,                                  ! Value Until Time 9
  18,                                     ! Hour 10
  0,                                      ! Minute 10
  0.61599999999999999,                    ! Value Until Time 10
  19,                                     ! Hour 11
  0,                                      ! Minute 11
  0.82899999999999996,                    ! Value Until Time 11
  20,                                     ! Hour 12
  0,                                      ! Minute 12
  0.98599999999999999,                    ! Value Until Time 12
  21,                                     ! Hour 13
  0,                                      ! Minute 13
  1,                                      ! Value Until Time 13
  22,                                     ! Hour 14
  0,                                      ! Minute 14
  0.69199999999999995,                    ! Value Until Time 14
  23,                                     ! Hour 15
  0,                                      ! Minute 15
  0.38400000000000001,                    ! Value Until Time 15
  24,                                     ! Hour 16
  0,                                      ! Minute 16
  0.16;                                   ! Value Until Time 16

OS:Schedule:Day,
  {6ef8b1e8-aa3d-466e-b543-f0aff2fecd4e}, ! Handle
  MidriseApartment Apartment Light Winter Design Day, ! Name
  {c484d647-a8be-49b1-9cba-d32f00b74046}, ! Schedule Type Limits Name
  ,                                       ! Interpolate to Timestep
  4,                                      ! Hour 1
  0,                                      ! Minute 1
  0.067000000000000004,                   ! Value Until Time 1
  5,                                      ! Hour 2
  0,                                      ! Minute 2
  0.187,                                  ! Value Until Time 2
  6,                                      ! Hour 3
  0,                                      ! Minute 3
  0.39400000000000002,                    ! Value Until Time 3
  7,                                      ! Hour 4
  0,                                      ! Minute 4
  0.44,                                   ! Value Until Time 4
  8,                                      ! Hour 5
  0,                                      ! Minute 5
  0.39300000000000002,                    ! Value Until Time 5
  9,                                      ! Hour 6
  0,                                      ! Minute 6
  0.17199999999999999,                    ! Value Until Time 6
  15,                                     ! Hour 7
  0,                                      ! Minute 7
  0.11899999999999999,                    ! Value Until Time 7
  16,                                     ! Hour 8
  0,                                      ! Minute 8
  0.20599999999999999,                    ! Value Until Time 8
  17,                                     ! Hour 9
  0,                                      ! Minute 9
  0.439,                                  ! Value Until Time 9
  18,                                     ! Hour 10
  0,                                      ! Minute 10
  0.61599999999999999,                    ! Value Until Time 10
  19,                                     ! Hour 11
  0,                                      ! Minute 11
  0.82899999999999996,                    ! Value Until Time 11
  20,                                     ! Hour 12
  0,                                      ! Minute 12
  0.98599999999999999,                    ! Value Until Time 12
  21,                                     ! Hour 13
  0,                                      ! Minute 13
  1,                                      ! Value Until Time 13
  22,                                     ! Hour 14
  0,                                      ! Minute 14
  0.69199999999999995,                    ! Value Until Time 14
  23,                                     ! Hour 15
  0,                                      ! Minute 15
  0.38400000000000001,                    ! Value Until Time 15
  24,                                     ! Hour 16
  0,                                      ! Minute 16
  0.16;                                   ! Value Until Time 16

OS:People:Definition,
  {745c1433-76ab-4ae3-8323-9cd9692bee44}, !- Handle
  189.1-2009 - MidriseApartment - Apartment - CZ4-8 People Definition, !- Name
  People/Area,                            !- Number of People Calculation Method
  ,                                       !- Number of People {people}
  0.0283090843959466,                     !- People per Space Floor Area {person/m2}
  ,                                       !- Space Floor Area per Person {m2/person}
  0.3;                                    !- Fraction Radiant

OS:Schedule:Ruleset,
  {2ba99341-6b28-4e32-b843-15079d1fe762}, ! Handle
  MidriseApartment Apartment Occ,         ! Name
  {c484d647-a8be-49b1-9cba-d32f00b74046}, ! Schedule Type Limits Name
  {5d2061e0-f7da-42dd-850c-88ab0e1095a5}, ! Default Day Schedule Name
  {83d25d05-5e95-419b-9e09-9f3bcf1d0e96}, ! Summer Design Day Schedule Name
  {d6c39752-d31d-4b77-82d3-72d7a4e32906}; ! Winter Design Day Schedule Name

OS:Schedule:Day,
  {5d2061e0-f7da-42dd-850c-88ab0e1095a5}, ! Handle
  MidriseApartment Apartment Occ Default Schedule, ! Name
  {c484d647-a8be-49b1-9cba-d32f00b74046}, ! Schedule Type Limits Name
  ,                                       ! Interpolate to Timestep
  7,                                      !- Hour 1
  0,                                      !- Minute 1
  1,                                      !- Value Until Time 1
  8,                                      !- Hour 2
  0,                                      !- Minute 2
  0.85,                                   !- Value Until Time 2
  9,                                      !- Hour 3
  0,                                      !- Minute 3
  0.39,                                   !- Value Until Time 3
  16,                                     !- Hour 4
  0,                                      !- Minute 4
  0.25,                                   !- Value Until Time 4
  17,                                     !- Hour 5
  0,                                      !- Minute 5
  0.3,                                    !- Value Until Time 5
  18,                                     !- Hour 6
  0,                                      !- Minute 6
  0.52,                                   !- Value Until Time 6
  21,                                     !- Hour 7
  0,                                      !- Minute 7
  0.87,                                   !- Value Until Time 7
  24,                                     !- Hour 8
  0,                                      !- Minute 8
  1;                                      !- Value Until Time 8

OS:Schedule:Day,
  {83d25d05-5e95-419b-9e09-9f3bcf1d0e96}, ! Handle
  MidriseApartment Apartment Occ Summer Design Day, ! Name
  {c484d647-a8be-49b1-9cba-d32f00b74046}, ! Schedule Type Limits Name
  ,                                       ! Interpolate to Timestep
  7,                                      ! Hour 1
  0,                                      ! Minute 1
  1,                                      ! Value Until Time 1
  8,                                      ! Hour 2
  0,                                      ! Minute 2
  0.84999999999999998,                    ! Value Until Time 2
  9,                                      ! Hour 3
  0,                                      ! Minute 3
  0.39000000000000001,                    ! Value Until Time 3
  16,                                     ! Hour 4
  0,                                      ! Minute 4
  0.25,                                   ! Value Until Time 4
  17,                                     ! Hour 5
  0,                                      ! Minute 5
  0.29999999999999999,                    ! Value Until Time 5
  18,                                     ! Hour 6
  0,                                      ! Minute 6
  0.52000000000000002,                    ! Value Until Time 6
  21,                                     ! Hour 7
  0,                                      ! Minute 7
  0.87,                                   ! Value Until Time 7
  24,                                     ! Hour 8
  0,                                      ! Minute 8
  1;                                      ! Value Until Time 8

OS:Schedule:Day,
  {d6c39752-d31d-4b77-82d3-72d7a4e32906}, ! Handle
  MidriseApartment Apartment Occ Winter Design Day, ! Name
  {c484d647-a8be-49b1-9cba-d32f00b74046}, ! Schedule Type Limits Name
  ,                                       ! Interpolate to Timestep
  7,                                      ! Hour 1
  0,                                      ! Minute 1
  1,                                      ! Value Until Time 1
  8,                                      ! Hour 2
  0,                                      ! Minute 2
  0.84999999999999998,                    ! Value Until Time 2
  9,                                      ! Hour 3
  0,                                      ! Minute 3
  0.39000000000000001,                    ! Value Until Time 3
  16,                                     ! Hour 4
  0,                                      ! Minute 4
  0.25,                                   ! Value Until Time 4
  17,                                     ! Hour 5
  0,                                      ! Minute 5
  0.29999999999999999,                    ! Value Until Time 5
  18,                                     ! Hour 6
  0,                                      ! Minute 6
  0.52000000000000002,                    ! Value Until Time 6
  21,                                     ! Hour 7
  0,                                      ! Minute 7
  0.87,                                   ! Value Until Time 7
  24,                                     ! Hour 8
  0,                                      ! Minute 8
  1;                                      ! Value Until Time 8

OS:Schedule:Ruleset,
  {102ddf2b-d4f9-486e-b264-c96613ac5825}, ! Handle
  MidriseApartment Activity,              ! Name
  {96e67202-4055-480b-85c7-ff666263b45e}, ! Schedule Type Limits Name
  {7c82e0e0-e758-4c33-96a6-e5abd621498e}, ! Default Day Schedule Name
  {a44a69f1-8939-4df3-963c-bdbe8e82491f}, ! Summer Design Day Schedule Name
  {a6436ca9-d07d-4e37-8b1d-4a6d69569cde}; ! Winter Design Day Schedule Name

OS:ScheduleTypeLimits,
  {96e67202-4055-480b-85c7-ff666263b45e}, !- Handle
  ActivityLevel 1,                        !- Name
  0,                                      !- Lower Limit Value
  ,                                       !- Upper Limit Value
  Continuous,                             !- Numeric Type
  ActivityLevel;                          !- Unit Type

OS:Schedule:Day,
  {7c82e0e0-e758-4c33-96a6-e5abd621498e}, ! Handle
  MidriseApartment Activity Default Schedule, ! Name
  {96e67202-4055-480b-85c7-ff666263b45e}, ! Schedule Type Limits Name
  ,                                       ! Interpolate to Timestep
  24,                                     !- Hour 1
  0,                                      !- Minute 1
  120;                                    !- Value Until Time 1

OS:Schedule:Day,
  {a44a69f1-8939-4df3-963c-bdbe8e82491f}, ! Handle
  MidriseApartment Activity Summer Design Day, ! Name
  {96e67202-4055-480b-85c7-ff666263b45e}, ! Schedule Type Limits Name
  ,                                       ! Interpolate to Timestep
  24,                                     ! Hour 1
  0,                                      ! Minute 1
  120;                                    ! Value Until Time 1

OS:Schedule:Day,
  {a6436ca9-d07d-4e37-8b1d-4a6d69569cde}, ! Handle
  MidriseApartment Activity Winter Design Day, ! Name
  {96e67202-4055-480b-85c7-ff666263b45e}, ! Schedule Type Limits Name
  ,                                       ! Interpolate to Timestep
  24,                                     ! Hour 1
  0,                                      ! Minute 1
  120;                                    ! Value Until Time 1

OS:Schedule:Ruleset,
  {13eff50d-4785-4d4c-997e-aca4f0cb43d5}, ! Handle
  MidriseApartment Infil,                 ! Name
  {c484d647-a8be-49b1-9cba-d32f00b74046}, ! Schedule Type Limits Name
  {1eaa2ebd-1a44-453f-a1a1-57d05fd4e0f9}, ! Default Day Schedule Name
  {56c31234-10b2-4161-bfd4-36f7c35fd63d}, ! Summer Design Day Schedule Name
  {641da8d7-385c-4572-a206-4642d3120eff}; ! Winter Design Day Schedule Name

OS:Schedule:Day,
  {1eaa2ebd-1a44-453f-a1a1-57d05fd4e0f9}, ! Handle
  MidriseApartment Infil Default Schedule, ! Name
  {c484d647-a8be-49b1-9cba-d32f00b74046}, ! Schedule Type Limits Name
  ,                                       ! Interpolate to Timestep
  24,                                     !- Hour 1
  0,                                      !- Minute 1
  1;                                      !- Value Until Time 1

OS:Schedule:Day,
  {56c31234-10b2-4161-bfd4-36f7c35fd63d}, ! Handle
  MidriseApartment Infil Summer Design Day, ! Name
  {c484d647-a8be-49b1-9cba-d32f00b74046}, ! Schedule Type Limits Name
  ,                                       ! Interpolate to Timestep
  24,                                     ! Hour 1
  0,                                      ! Minute 1
  1;                                      ! Value Until Time 1

OS:Schedule:Day,
  {641da8d7-385c-4572-a206-4642d3120eff}, ! Handle
  MidriseApartment Infil Winter Design Day, ! Name
  {c484d647-a8be-49b1-9cba-d32f00b74046}, ! Schedule Type Limits Name
  ,                                       ! Interpolate to Timestep
  24,                                     ! Hour 1
  0,                                      ! Minute 1
  1;                                      ! Value Until Time 1

OS:ElectricEquipment:Definition,
  {0b79d385-2583-4c12-ad42-4604596ab233}, !- Handle
  189.1-2009 - MidriseApartment - Apartment - CZ4-8 Electric Equipment Definition, !- Name
  Watts/Area,                             !- Design Level Calculation Method
  ,                                       !- Design Level {W}
  8.15,                                   !- Watts per Space Floor Area {W/m2}
  ;                                       !- Watts per Person {W/person}

OS:Schedule:Ruleset,
  {1947aedb-3b4e-4fea-8009-8d1355ca33d0}, ! Handle
  MidriseApartment Apartment Equip,       ! Name
  {c484d647-a8be-49b1-9cba-d32f00b74046}, ! Schedule Type Limits Name
  {31b13daa-db8d-42bc-b790-54123d45efa0}, ! Default Day Schedule Name
  {6f89799d-f1d3-4f88-9382-b479dee0905a}, ! Summer Design Day Schedule Name
  {383c092c-1825-4c3f-a0dc-a2532d86ea81}; ! Winter Design Day Schedule Name

OS:Schedule:Day,