
OS:Version,
  {755042cf-fce1-4888-82e8-f9f4919a97c4}, !- Handle
  3.7.0;                                  !- Version Identifier

OS:Schedule:Constant,
  {05867b91-79e0-44c6-abd9-41b6a64a32aa}, !- Handle
  Always On Discrete,                     !- Name
  {3fdf05e3-aff8-4d2e-8dc5-0b13cbad5bde}, !- Schedule Type Limits Name
  1;                                      !- Value

OS:ScheduleTypeLimits,
  {3fdf05e3-aff8-4d2e-8dc5-0b13cbad5bde}, !- Handle
  Always On Discrete Limits,              !- Name
  0,                                      !- Lower Limit Value
  1,                                      !- Upper Limit Value
  Discrete,                               !- Numeric Type
  Availability;                           !- Unit Type

OS:ClimateZones,
  {8a3ac41c-57d4-48e4-a48e-1f232e262211}, !- Handle
  ASHRAE,                                 !- Climate Zone Institution Name 1
  ANSI/ASHRAE Standard 169,               !- Climate Zone Document Name 1
  2006,                                   !- Climate Zone Document Year 1
  6A,                                     !- Climate Zone Value 1
  CEC,                                    !- Climate Zone Institution Name 2
  California Climate Zone Descriptions,   !- Climate Zone Document Name 2
  1995,                                   !- Climate Zone Document Year 2
  ;                                       !- Climate Zone Value 2

OS:LifeCycleCost:Parameters,
  {1d4d0f18-e6dd-45c8-896c-f4f2a89e6ae5}, !- Handle
  FEMP,                                   !- Analysis Type
  ,                                       !- Discounting Convention
  ,                                       !- Inflation Approach
  ,                                       !- Real Discount Rate
  ,                                       !- Nominal Discount Rate
  ,                                       !- Inflation
  ,                                       !- Base Date Month
  ,                                       !- Base Date Year
  ,                                       !- Service Date Month
  ,                                       !- Service Date Year
  ,                                       !- Length of Study Period in Years
  ,                                       !- Tax Rate
  ,                                       !- Depreciation Method
  Yes;                                    !- Use NIST Fuel Escalation Rates

OS:YearDescription,
  {c1349a5a-d7e1-4ed9-8e5b-24480649c25c}, !- Handle
  ,                                       !- Calendar Year
  Sunday;                                 !- Day of Week for Start Day

OS:RadianceParameters,
  {8297fd56-36de-4b79-a182-b7636f4ae3e3}, !- Handle
  1,                                      !- Accumulated Rays per Record
  0,                                      !- Direct Threshold
  1,                                      !- Direct Certainty
  1,                                      !- Direct Jitter
  1,                                      !- Direct Pretest
  6,                                      !- Ambient Bounces VMX
  2,                                      !- Ambient Bounces DMX
  4050,                                   !- Ambient Divisions VMX
  512,                                    !- Ambient Divisions DMX
  256,                                    !- Ambient Supersamples
  0.001,                                  !- Limit Weight VMX
  0.001,                                  !- Limit Weight DMX
  500,                                    !- Klems Sampling Density
  146;                                    !- Sky Discretization Resolution

OS:SimulationControl,
  {7c57f4fc-548f-44e7-a438-1feca6a75629}; !- Handle

OS:Sizing:Parameters,
  {ee365675-827e-489e-9a24-0f596988dec4}, !- Handle
  1.25,                                   !- Heating Sizing Factor
  1.15;                                   !- Cooling Sizing Factor

OS:ProgramControl,
  {8a7b938e-cdcb-40af-82b1-79c267c36bae}; !- Handle

OS:Timestep,
  {31824a36-2f0f-4919-a534-cdb00e20d2e0}, !- Handle
  6;                                      !- Number of Timesteps per Hour

OS:OutputControl:ReportingTolerances,
  {275082a5-6cfd-4756-972e-8810ab253e29}; !- Handle

OS:ConvergenceLimits,
  {fcca1605-8471-4f2f-a485-a59582311771}; !- Handle

OS:ShadowCalculation,
  {d875de65-75c7-4d9d-883e-07bd79421b67}, !- Handle
  PolygonClipping,                        !- Shading Calculation Method
  ,                                       !- Shading Calculation Update Frequency Method
  7,                                      !- Shading Calculation Update Frequency
  15000,                                  !- Maximum Figures in Shadow Overlap Calculations
  ,                                       !- Polygon Clipping Algorithm
  512,                                    !- Pixel Counting Resolution
  ,                                       !- Sky Diffuse Modeling Algorithm
  No,                                     !- Output External Shading Calculation Results
  No,                                     !- Disable Self-Shading Within Shading Zone Groups
  No;                                     !- Disable Self-Shading From Shading Zone Groups to Other Zones

OS:SurfaceConvectionAlgorithm:Inside,
  {5add9a33-b760-4e82-a0f9-3ae0e369b9c4}, !- Handle
  TARP;                                   !- Algorithm

OS:SurfaceConvectionAlgorithm:Outside,
  {0257be16-14fc-418e-bc73-178201ccc4ec}, !- Handle
  DOE-2;                                  !- Algorithm

OS:HeatBalanceAlgorithm,
  {5a22c4c4-a6a6-4769-b0a8-f79498f98a6d}, !- Handle
  ConductionTransferFunction,             !- Algorithm
  200;                                    !- Surface Temperature Upper Limit {C}

OS:ZoneAirHeatBalanceAlgorithm,
  {24c912f8-6f7f-4792-8ea0-a8d47b3c41a1}, !- Handle
  AnalyticalSolution,                     !- Algorithm
  ,                                       !- Do Space Heat Balance for Sizing
  ;                                       !- Do Space Heat Balance for Simulation

OS:ZoneAirContaminantBalance,
  {07e7d420-4b9b-4760-8a70-01b36aa6074f}; !- Handle

OS:ZoneCapacitanceMultiplier:ResearchSpecial,
  {91056672-db13-4057-9cb7-7ac44d24bfc5}, !- Handle
  ,                                       !- Temperature Capacity Multiplier
  ,                                       !- Humidity Capacity Multiplier
  ;                                       !- Carbon Dioxide Capacity Multiplier

OS:RunPeriod,
  {17c33f47-c9b9-463a-84bc-12596f349148}, !- Handle
  Run Period 1,                           !- Name
  1,                                      !- Begin Month
  1,                                      !- Begin Day of Month
  12,                                     !- End Month
  31,                                     !- End Day of Month
  ,                                       !- Use Weather File Holidays and Special Days
  ,                                       !- Use Weather File Daylight Saving Period
  ,                                       !- Apply Weekend Holiday Rule
  ,                                       !- Use Weather File Rain Indicators
  ,                                       !- Use Weather File Snow Indicators
  ;                                       !- Number of Times Runperiod to be Repeated

OS:Building,
  {e0ce3521-4e53-4eca-8017-2f1c8dec2b50}, !- Handle
  Building 1,                             !- Name
  ,                                       !- Building Sector Type
  ,                                       !- North Axis {deg}
  ,                                       !- Nominal Floor to Floor Height {m}
  ,                                       !- Space Type Name
  ,                                       !- Default Construction Set Name
  ,                                       !- Default Schedule Set Name
  ,                                       !- Standards Number of Stories
  ,                                       !- Standards Number of Above Ground Stories
  ,                                       !- Standards Template
  ,                                       !- Standards Building Type
  ,                                       !- Standards Number of Living Units
  ,                                       !- Relocatable
  ;                                       !- Nominal Floor to Ceiling Height {m}

OS:Facility,
  {b6e6be84-f909-42a5-9deb-ef70c0296721}; !- Handle

OS:Site,
  {f38b0e3c-04e1-4822-940e-9b46c436222c}, !- Handle
  Montreal Int'l,                         !- Name
  45.47,                                  !- Latitude {deg}
  -73.75,                                 !- Longitude {deg}
  -5,                                     !- Time Zone {hr}
  36,                                     !- Elevation {m}
  ;                                       !- Terrain

OS:Rendering:Color,
  {02c4091f-7df8-4b0d-9c74-618e8686773d}, !- Handle
  Rendering Color 1,                      !- Name
  78,                                     !- Rendering Red Value
  167,                                    !- Rendering Green Value
  222;                                    !- Rendering Blue Value

OS:Schedule:Ruleset,
  {5541e317-c04f-462a-8cb9-d0fcfb346e75}, ! Handle
  MidriseApartment Apartment Light,       ! Name
  {538120f4-b8c8-4ad8-92e1-b2a315d1ae66}, ! Schedule Type Limits Name
  {8a3de8f7-6099-4552-89f6-ad5f97219a14}, ! Default Day Schedule Name
  {4cb526a0-98d6-4a83-bbbd-a83c97494c60}, ! Summer Design Day Schedule Name
  {24b63a01-3669-446b-ae26-e19f3506e9aa}; ! Winter Design Day Schedule Name

OS:ScheduleTypeLimits,
  {538120f4-b8c8-4ad8-92e1-b2a315d1ae66}, ! Handle
  Fraction,                               ! Name
  0,                                      ! Lower Limit Value
  1,                                      ! Upper Limit Value
  CONTINUOUS;                             ! Numeric Type

OS:Schedule:Day,
  {8a3de8f7-6099-4552-89f6-ad5f97219a14}, ! Handle
  MidriseApartment Apartment Light Default Schedule, ! Name
  {538120f4-b8c8-4ad8-92e1-b2a315d1ae66}, ! Schedule Type Limits Name
  ,                                       ! Interpolate to Timestep
  4,                                      !- Hour 1
  0,                                      !- Minute 1
  0.067,                                  !- Value Until Time 1
  5,                                      !- Hour 2
  0,                                      !- Minute 2
  0.187,                                  !- Value Until Time 2
  6,                                      !- Hour 3
  0,                                      !- Minute 3
  0.394,                                  !- Value Until Time 3
  7,                                      !- Hour 4
  0,                                      !- Minute 4
  0.44,                                   !- Value Until Time 4
  8,                                      !- Hour 5
  0,                                      !- Minute 5
  0.393,                                  !- Value Until Time 5
  9,                                      !- Hour 6
  0,                                      !- Minute 6
  0.172,                                  !- Value Until Time 6
  15,                                     !- Hour 7
  0,                                      !- Minute 7
  0.119,                                  !- Value Until Time 7
  16,                                     !- Hour 8
  0,                                      !- Minute 8
  0.206,                                  !- Value Until Time 8
  17,                                     !- Hour 9
  0,                                      !- Minute 9
  0.439,                                  !- Value Until Time 9
  18,                                     !- Hour 10
  0,                                      !- Minute 10
  0.616,                                  !- Value Until Time 10
  19,                                     !- Hour 11
  0,                                      !- Minute 11
  0.829,                                  !- Value Until Time 11
  20,                                     !- Hour 12
  0,                                      !- Minute 12
  0.986,                                  !- Value Until Time 12
  21,                                     !- Hour 13
  0,                                      !- Minute 13
  1,                                      !- Value Until Time 13
  22,                                     !- Hour 14
  0,                                      !- Minute 14
  0.692,                                  !- Value Until Time 14
  23,                                     !- Hour 15
  0,                                      !- Minute 15
  0.384,                                  !- Value Until Time 15
  24,                                     !- Hour 16
  0,                                      !- Minute 16
  0.16;                                   !- Value Until Time 16

OS:Schedule:Day,
  {4cb526a0-98d6-4a83-bbbd-a83c97494c60}, ! Handle
  MidriseApartment Apartment Light Summer Design Day, ! Name
  {538120f4-b8c8-4ad8-92e1-b2a315d1ae66}, ! Schedule Type Limits Name
  ,                                       ! Interpolate to Timestep
  4,                                      ! Hour 1
  0,                                      ! Minute 1
  0.067000000000000004,                   ! Value Until Time 1
  5,                                      ! Hour 2
  0,                                      ! Minute 2
  0.187,                                  ! Value Until Time 2
  6,                                      ! Hour 3
  0,                                      ! Minute 3
  0.39400000000000002,                    ! Value Until Time 3
  7,                                      ! Hour 4
  0,                                      ! Minute 4
  0.44,                                   ! Value Until Time 4
  8,                                      ! Hour 5
  0,                                      ! Minute 5
  0.39300000000000002,                    ! Value Until Time 5
  9,                                      ! Hour 6
  0,                                      ! Minute 6
  0.17199999999999999,                    ! Value Until Time 6
  15,                                     ! Hour 7
  0,                                      ! Minute 7
  0.11899999999999999,                    ! Value Until Time 7
  16,                                     ! Hour 8
  0,                                      ! Minute 8
  0.20599999999999999,                    ! Value Until Time 8
  17,                                     ! Hour 9
  0,                                      ! Minute 9
  0.439,                                  ! Value Until Time 9
  18,                                     ! Hour 10
  0,                                      ! Minute 10
  0.61599999999999999,                    ! Value Until Time 10
  19,                                     ! Hour 11
  0,                                      ! Minute 11
  0.82899999999999996,                    ! Value Until Time 11
  20,                                     ! Hour 12
  0,                                      ! Minute 12
  0.98599999999999999,                    ! Value Until Time 12
  21,                                     ! Hour 13
  0,                                      ! Minute 13
  1,                                      ! Value Until Time 13
  22,                                     ! Hour 14
  0,                                      ! Minute 14
  0.69199999999999995,                    ! Value Until Time 14
  23,                                     ! Hour 15
  0,                                      ! Minute 15
  0.38400000000000001,                    ! Value Until Time 15
  24,                                     ! Hour 16
  0,                                      ! Minute 16
  0.16;                                   ! Value Until Time 16

OS:Schedule:Day,
  {24b63a01-3669-446b-ae26-e19f3506e9aa}, ! Handle
  MidriseApartment Apartment Light Winter Design Day, ! Name
  {538120f4-b8c8-4ad8-92e1-b2a315d1ae66}, ! Schedule Type Limits Name
  ,                                       ! Interpolate to Timestep
  4,                                      ! Hour 1
  0,                                      ! Minute 1
  0.067000000000000004,                   ! Value Until Time 1
  5,                                      ! Hour 2
  0,                                      ! Minute 2
  0.187,                                  ! Value Until Time 2
  6,                                      ! Hour 3
  0,                                      ! Minute 3
  0.39400000000000002,                    ! Value Until Time 3
  7,                                      ! Hour 4
  0,                                      ! Minute 4
  0.44,                                   ! Value Until Time 4
  8,                                      ! Hour 5
  0,                                      ! Minute 5
  0.39300000000000002,                    ! Value Until Time 5
  9,                                      ! Hour 6
  0,                                      ! Minute 6
  0.17199999999999999,                    ! Value Until Time 6
  15,                                     ! Hour 7
  0,                                      ! Minute 7
  0.11899999999999999,                    ! Value Until Time 7
  16,                                     ! Hour 8
  0,                                      ! Minute 8
  0.20599999999999999,                    ! Value Until Time 8
  17,                                     ! Hour 9
  0,                                      ! Minute 9
  0.439,                                  ! Value Until Time 9
  18,                                     ! Hour 10
  0,                                      ! Minute 10
  0.61599999999999999,                    ! Value Until Time 10
  19,                                     ! Hour 11
  0,                                      ! Minute 11
  0.82899999999999996,                    ! Value Until Time 11
  20,                                     ! Hour 12
  0,                                      ! Minute 12
  0.98599999999999999,                    ! Value Until Time 12
  21,                                     ! Hour 13
  0,                                      ! Minute 13
  1,                                      ! Value Until Time 13
  22,                                     ! Hour 14
  0,                                      ! Minute 14
  0.69199999999999995,                    ! Value Until Time 14
  23,                                     ! Hour 15
  0,                                      ! Minute 15
  0.38400000000000001,                    ! Value Until Time 15
  24,                                     ! Hour 16
  0,                                      ! Minute 16
  0.16;                                   ! Value Until Time 16

OS:Schedule:Ruleset,
  {cfff63fb-0c65-4b8b-b996-93ed4deaba3e}, ! Handle
  MidriseApartment Apartment Occ,         ! Name
  {538120f4-b8c8-4ad8-92e1-b2a315d1ae66}, ! Schedule Type Limits Name
  {cd9a6fa3-7322-4d8c-9402-ec650761383f}, ! Default Day Schedule Name
  {2d22b1d1-32a4-4adc-b589-39941e51e730}, ! Summer Design Day Schedule Name
  {b9a86bd5-7a98-47be-aff3-2247bfe0cb2f}; ! Winter Design Day Schedule Name

OS:Schedule:Day,
  {cd9a6fa3-7322-4d8c-9402-ec650761383f}, ! Handle
  MidriseApartment Apartment Occ Default Schedule, ! Name
  {538120f4-b8c8-4ad8-92e1-b2a315d1ae66}, ! Schedule Type Limits Name
  ,                                       ! Interpolate to Timestep
  7,                                      !- Hour 1
  0,                                      !- Minute 1
  1,                                      !- Value Until Time 1
  8,                                      !- Hour 2
  0,                                      !- Minute 2
  0.85,                                   !- Value Until Time 2
  9,                                      !- Hour 3
  0,                                      !- Minute 3
  0.39,                                   !- Value Until Time 3
  16,                                     !- Hour 4
  0,                                      !- Minute 4
  0.25,                                   !- Value Until Time 4
  17,                                     !- Hour 5
  0,                                      !- Minute 5
  0.3,                                    !- Value Until Time 5
  18,                                     !- Hour 6
  0,                                      !- Minute 6
  0.52,                                   !- Value Until Time 6
  21,                                     !- Hour 7
  0,                                      !- Minute 7
  0.87,                                   !- Value Until Time 7
  24,                                     !- Hour 8
  0,                                      !- Minute 8
  1;                                      !- Value Until Time 8

OS:Schedule:Day,
  {2d22b1d1-32a4-4adc-b589-39941e51e730}, ! Handle
  MidriseApartment Apartment Occ Summer Design Day, ! Name
  {538120f4-b8c8-4ad8-92e1-b2a315d1ae66}, ! Schedule Type Limits Name
  ,                                       ! Interpolate to Timestep
  7,                                      ! Hour 1
  0,                                      ! Minute 1
  1,                                      ! Value Until Time 1
  8,                                      ! Hour 2
  0,                                      ! Minute 2
  0.84999999999999998,                    ! Value Until Time 2
  9,                                      ! Hour 3
  0,                                      ! Minute 3
  0.39000000000000001,                    ! Value Until Time 3
  16,                                     ! Hour 4
  0,                                      ! Minute 4
  0.25,                                   ! Value Until Time 4
  17,                                     ! Hour 5
  0,                                      ! Minute 5
  0.29999999999999999,                    ! Value Until Time 5
  18,                                     ! Hour 6
  0,                                      ! Minute 6
  0.52000000000000002,                    ! Value Until Time 6
  21,                                     ! Hour 7
  0,                                      ! Minute 7
  0.87,                                   ! Value Until Time 7
  24,                                     ! Hour 8
  0,                                      ! Minute 8
  1;                                      ! Value Until Time 8

OS:Schedule:Day,
  {b9a86bd5-7a98-47be-aff3-2247bfe0cb2f}, ! Handle
  MidriseApartment Apartment Occ Winter Design Day, ! Name
  {538120f4-b8c8-4ad8-92e1-b2a315d1ae66}, ! Schedule Type Limits Name
  ,                                       ! Interpolate to Timestep
  7,                                      ! Hour 1
  0,                                      ! Minute 1
  1,                                      ! Value Until Time 1
  8,                                      ! Hour 2
  0,                                      ! Minute 2
  0.84999999999999998,                    ! Value Until Time 2
  9,                                      ! Hour 3
  0,                                      ! Minute 3
  0.39000000000000001,                    ! Value Until Time 3
  16,                                     ! Hour 4
  0,                                      ! Minute 4
  0.25,                                   ! Value Until Time 4
  17,                                     ! Hour 5
  0,                                      ! Minute 5
  0.29999999999999999,                    ! Value Until Time 5
  18,                                     ! Hour 6
  0,                                      ! Minute 6
  0.52000000000000002,                    ! Value Until Time 6
  21,                                     ! Hour 7
  0,                                      ! Minute 7
  0.87,                                   ! Value Until Time 7
  24,                                     ! Hour 8
  0,                                      ! Minute 8
  1;                                      ! Value Until Time 8

OS:Schedule:Ruleset,
  {c7d7e39f-1b58-437f-85a1-a79b36ae34fd}, ! Handle
  MidriseApartment Activity,              ! Name
  {843895de-f911-4e75-b1c4-5e9c13a9653f}, ! Schedule Type Limits Name
  {340a9877-2fd4-4615-a3c5-7a1f79634c64}, ! Default Day Schedule Name
  {0f7e0225-b3c2-4cc3-9bce-46208530e551}, ! Summer Design Day Schedule Name
  {2dd03e9b-1fbc-4e2c-b0d9-d5ad23441269}; ! Winter Design Day Schedule Name

OS:ScheduleTypeLimits,
  {843895de-f911-4e75-b1c4-5e9c13a9653f}, !- Handle
  ActivityLevel 1,                        !- Name
  0,                                      !- Lower Limit Value
  ,                                       !- Upper Limit Value
  Continuous,                             !- Numeric Type
  ActivityLevel;                          !- Unit Type

OS:Schedule:Day,
  {340a9877-2fd4-4615-a3c5-7a1f79634c64}, ! Handle
  MidriseApartment Activity Default Schedule, ! Name
  {843895de-f911-4e75-b1c4-5e9c13a9653f}, ! Schedule Type Limits Name
  ,                                       ! Interpolate to Timestep
  24,                                     !- Hour 1
  0,                                      !- Minute 1
  120;                                    !- Value Until Time 1

OS:Schedule:Day,
  {0f7e0225-b3c2-4cc3-9bce-46208530e551}, ! Handle
  MidriseApartment Activity Summer Design Day, ! Name
  {843895de-f911-4e75-b1c4-5e9c13a9653f}, ! Schedule Type Limits Name
  ,                                       ! Interpolate to Timestep
  24,                                     ! Hour 1
  0,                                      ! Minute 1
  120;                                    ! Value Until Time 1

OS:Schedule:Day,
  {2dd03e9b-1fbc-4e2c-b0d9-d5ad23441269}, ! Handle
  MidriseApartment Activity Winter Design Day, ! Name
  {843895de-f911-4e75-b1c4-5e9c13a9653f}, ! Schedule Type Limits Name
  ,                                       ! Interpolate to Timestep
  24,                                     ! Hour 1
  0,                                      ! Minute 1
  120;                                    ! Value Until Time 1

OS:Schedule:Ruleset,
  {caa90dd6-5f9e-4753-a76a-c7878de92c5a}, ! Handle
  MidriseApartment Infil,                 ! Name
  {538120f4-b8c8-4ad8-92e1-b2a315d1ae66}, ! Schedule Type Limits Name
  {ddbbc4a6-4484-49f7-94b7-99557e4971a2}, ! Default Day Schedule Name
  {62c9bde7-9c87-45f1-b87b-320f3977bf11}, ! Summer Design Day Schedule Name
  {0b1d5e14-326c-4671-905a-8a7dc979293c}; ! Winter Design Day Schedule Name

OS:Schedule:Day,
  {ddbbc4a6-4484-49f7-94b7-99557e4971a2}, ! Handle
  MidriseApartment Infil Default Schedule, ! Name
  {538120f4-b8c8-4ad8-92e1-b2a315d1ae66}, ! Schedule Type Limits Name
  ,                                       ! Interpolate to Timestep
  24,                                     !- Hour 1
  0,                                      !- Minute 1
  1;                                      !- Value Until Time 1

OS:Schedule:Day,
  {62c9bde7-9c87-45f1-b87b-320f3977bf11}, ! Handle
  MidriseApartment Infil Summer Design Day, ! Name
  {538120f4-b8c8-4ad8-92e1-b2a315d1ae66}, ! Schedule Type Limits Name
  ,                                       ! Interpolate to Timestep
  24,                                     ! Hour 1
  0,                                      ! Minute 1
  1;                                      ! Value Until Time 1

OS:Schedule:Day,
  {0b1d5e14-326c-4671-905a-8a7dc979293c}, ! Handle
  MidriseApartment Infil Winter Design Day, ! Name
  {538120f4-b8c8-4ad8-92e1-b2a315d1ae66}, ! Schedule Type Limits Name
  ,                                       ! Interpolate to Timestep
  24,                                     ! Hour 1
  0,                                      ! Minute 1
  1;                                      ! Value Until Time 1

OS:Schedule:Ruleset,
  {30574c08-6d85-4acd-9a7e-860c11e082e5}, ! Handle
  MidriseApartment Apartment Equip,       ! Name
  {538120f4-b8c8-4ad8-92e1-b2a315d1ae66}, ! Schedule Type Limits Name
  {a8692451-33ba-4901-9c4e-9bc4df4b7f95}, ! Default Day Schedule Name
  {a7c566fb-de6c-41a1-ac65-a7d08c9a0633}, ! Summer Design Day Schedule Name
  {4516eae8-3b87-4620-94fb-f540975b52f4}; ! Winter Design Day Schedule Name

OS:Schedule:Day,
  {a8692451-33ba-4901-9c4e-9bc4df4b7f95}, ! Handle
  MidriseApartment Apartment Equip Default Schedule, ! Name
  {538120f4-b8c8-4ad8-92e1-b2a315d1ae66}, ! Schedule Type Limits Name
  ,                                       ! Interpolate to Timestep
  1,                                      !- Hour 1
  0,                                      !- Minute 1
  0.45,                                   !- Value Until Time 1
  2,                                      !- Hour 2
  0,                                      !- Minute 2
  0.41,                                   !- Value Until Time 2
  3,                                      !- Hour 3
  0,                                      !- Minute 3
  0.39,                                   !- Value Until Time 3
  5,                                      !- Hour 4
  0,                                      !- Minute 4
  0.38,                                   !- Value Until Time 4
  6,                                      !- Hour 5
  0,                                      !- Minute 5
  0.43,                                   !- Value Until Time 5
  7,                                      !- Hour 6
  0,                                      !- Minute 6
  0.54,                                   !- Value Until Time 6
  8,                                      !- Hour 7
  0,                                      !- Minute 7
  0.65,                                   !- Value Until Time 7
  9,                                      !- Hour 8
  0,                                      !- Minute 8
  0.66,                                   !- Value Until Time 8
  10,                                     !- Hour 9
  0,                                      !- Minute 9
  0.67,                                   !- Value Until Time 9
  11,                                     !- Hour 10