
Version,
  23.2;                                   !- Version Identifier

Timestep,
  6;                                      !- Number of Timesteps per Hour

LifeCycleCost:Parameters,
  Life Cycle Cost Parameters,             !- Name
  EndOfYear,                              !- Discounting Convention
  ConstantDollar,                         !- Inflation Approach
  0.03,                                   !- Real Discount Rate
  ,                                       !- Nominal Discount Rate
  ,                                       !- Inflation
  ,                                       !- Base Date Month
  2011,                                   !- Base Date Year
  ,                                       !- Service Date Month
  2011,                                   !- Service Date Year
  25,                                     !- Length of Study Period in Years
  ,                                       !- Tax rate
  None;                                   !- Depreciation Method

LifeCycleCost:UsePriceEscalation,
  U.S. Avg  Commercial-Electricity,       !- Name
  Electricity,                            !- Resource
  2011,                                   !- Escalation Start Year
  January,                                !- Escalation Start Month
  0.9838,                                 !- Year Escalation 1
  0.9730,                                 !- Year Escalation 2
  0.9632,                                 !- Year Escalation 3
  0.9611,                                 !- Year Escalation 4
  0.9571,                                 !- Year Escalation 5
  0.9553,                                 !- Year Escalation 6
  0.9539,                                 !- Year Escalation 7
  0.9521,                                 !- Year Escalation 8
  0.9546,                                 !- Year Escalation 9
  0.9550,                                 !- Year Escalation 10
  0.9553,                                 !- Year Escalation 11
  0.9564,                                 !- Year Escalation 12
  0.9575,                                 !- Year Escalation 13
  0.9596,                                 !- Year Escalation 14
  0.9618,                                 !- Year Escalation 15
  0.9614,                                 !- Year Escalation 16
  0.9618,                                 !- Year Escalation 17
  0.9618,                                 !- Year Escalation 18
  0.9593,                                 !- Year Escalation 19
  0.9589,                                 !- Year Escalation 20
  0.9607,                                 !- Year Escalation 21
  0.9625,                                 !- Year Escalation 22
  0.9650,                                 !- Year Escalation 23
  0.9708,                                 !- Year Escalation 24
  0.9751,                                 !- Year Escalation 25
  0.9762,                                 !- Year Escalation 26
  0.9766,                                 !- Year Escalation 27
  0.9766,                                 !- Year Escalation 28
  0.9769,                                 !- Year Escalation 29
  0.9773;                                 !- Year Escalation 30

LifeCycleCost:UsePriceEscalation,
  U.S. Avg  Commercial-Distillate Oil,    !- Name
  FuelOilNo1,                             !- Resource
  2011,                                   !- Escalation Start Year
  January,                                !- Escalation Start Month
  0.9714,                                 !- Year Escalation 1
  0.9730,                                 !- Year Escalation 2
  0.9942,                                 !- Year Escalation 3
  1.0164,                                 !- Year Escalation 4
  1.0541,                                 !- Year Escalation 5
  1.0928,                                 !- Year Escalation 6
  1.1267,                                 !- Year Escalation 7
  1.1580,                                 !- Year Escalation 8
  1.1792,                                 !- Year Escalation 9
  1.1967,                                 !- Year Escalation 10
  1.2200,                                 !- Year Escalation 11
  1.2333,                                 !- Year Escalation 12
  1.2566,                                 !- Year Escalation 13
  1.2709,                                 !- Year Escalation 14
  1.2826,                                 !- Year Escalation 15
  1.2985,                                 !- Year Escalation 16
  1.3102,                                 !- Year Escalation 17
  1.3250,                                 !- Year Escalation 18
  1.3261,                                 !- Year Escalation 19
  1.3282,                                 !- Year Escalation 20
  1.3324,                                 !- Year Escalation 21
  1.3356,                                 !- Year Escalation 22
  1.3431,                                 !- Year Escalation 23
  1.3510,                                 !- Year Escalation 24
  1.3568,                                 !- Year Escalation 25
  1.3606,                                 !- Year Escalation 26
  1.3637,                                 !- Year Escalation 27
  1.3674,                                 !- Year Escalation 28
  1.3706,                                 !- Year Escalation 29
  1.3743;                                 !- Year Escalation 30

LifeCycleCost:UsePriceEscalation,
  U.S. Avg  Commercial-Residual Oil,      !- Name
  FuelOilNo2,                             !- Resource
  2011,                                   !- Escalation Start Year
  January,                                !- Escalation Start Month
  0.8469,                                 !- Year Escalation 1
  0.8257,                                 !- Year Escalation 2
  0.8681,                                 !- Year Escalation 3
  0.8988,                                 !- Year Escalation 4
  0.9289,                                 !- Year Escalation 5
  0.9604,                                 !- Year Escalation 6
  0.9897,                                 !- Year Escalation 7
  1.0075,                                 !- Year Escalation 8
  1.0314,                                 !- Year Escalation 9
  1.0554,                                 !- Year Escalation 10
  1.0861,                                 !- Year Escalation 11
  1.1278,                                 !- Year Escalation 12
  1.1497,                                 !- Year Escalation 13
  1.1620,                                 !- Year Escalation 14
  1.1743,                                 !- Year Escalation 15
  1.1852,                                 !- Year Escalation 16
  1.1948,                                 !- Year Escalation 17
  1.2037,                                 !- Year Escalation 18
  1.2071,                                 !- Year Escalation 19
  1.2119,                                 !- Year Escalation 20
  1.2139,                                 !- Year Escalation 21
  1.2194,                                 !- Year Escalation 22
  1.2276,                                 !- Year Escalation 23
  1.2365,                                 !- Year Escalation 24
  1.2420,                                 !- Year Escalation 25
  1.2461,                                 !- Year Escalation 26
  1.2509,                                 !- Year Escalation 27
  1.2550,                                 !- Year Escalation 28
  1.2591,                                 !- Year Escalation 29
  1.2638;                                 !- Year Escalation 30

LifeCycleCost:UsePriceEscalation,
  U.S. Avg  Commercial-Natural gas,       !- Name
  NaturalGas,                             !- Resource
  2011,                                   !- Escalation Start Year
  January,                                !- Escalation Start Month
  0.9823,                                 !- Year Escalation 1
  0.9557,                                 !- Year Escalation 2
  0.9279,                                 !- Year Escalation 3
  0.9257,                                 !- Year Escalation 4
  0.9346,                                 !- Year Escalation 5
  0.9412,                                 !- Year Escalation 6
  0.9512,                                 !- Year Escalation 7
  0.9645,                                 !- Year Escalation 8
  0.9856,                                 !- Year Escalation 9
  1.0067,                                 !- Year Escalation 10
  1.0222,                                 !- Year Escalation 11
  1.0410,                                 !- Year Escalation 12
  1.0610,                                 !- Year Escalation 13
  1.0787,                                 !- Year Escalation 14
  1.0942,                                 !- Year Escalation 15
  1.1098,                                 !- Year Escalation 16
  1.1220,                                 !- Year Escalation 17
  1.1308,                                 !- Year Escalation 18
  1.1386,                                 !- Year Escalation 19
  1.1486,                                 !- Year Escalation 20
  1.1619,                                 !- Year Escalation 21
  1.1763,                                 !- Year Escalation 22
  1.1918,                                 !- Year Escalation 23
  1.2118,                                 !- Year Escalation 24
  1.2284,                                 !- Year Escalation 25
  1.2439,                                 !- Year Escalation 26
  1.2605,                                 !- Year Escalation 27
  1.2772,                                 !- Year Escalation 28
  1.2938,                                 !- Year Escalation 29
  1.3115;                                 !- Year Escalation 30

LifeCycleCost:UsePriceEscalation,
  U.S. Avg  Commercial-Coal,              !- Name
  Coal,                                   !- Resource
  2011,                                   !- Escalation Start Year
  January,                                !- Escalation Start Month
  0.9970,                                 !- Year Escalation 1
  1.0089,                                 !- Year Escalation 2
  1.0089,                                 !- Year Escalation 3
  0.9941,                                 !- Year Escalation 4
  0.9941,                                 !- Year Escalation 5
  1.0000,                                 !- Year Escalation 6
  1.0030,                                 !- Year Escalation 7
  1.0059,                                 !- Year Escalation 8
  1.0089,                                 !- Year Escalation 9
  1.0119,                                 !- Year Escalation 10
  1.0148,                                 !- Year Escalation 11
  1.0178,                                 !- Year Escalation 12
  1.0208,                                 !- Year Escalation 13
  1.0267,                                 !- Year Escalation 14
  1.0297,                                 !- Year Escalation 15
  1.0356,                                 !- Year Escalation 16
  1.0415,                                 !- Year Escalation 17
  1.0534,                                 !- Year Escalation 18
  1.0564,                                 !- Year Escalation 19
  1.0593,                                 !- Year Escalation 20
  1.0653,                                 !- Year Escalation 21
  1.0712,                                 !- Year Escalation 22
  1.0742,                                 !- Year Escalation 23
  1.0801,                                 !- Year Escalation 24
  1.0831,                                 !- Year Escalation 25
  1.0831,                                 !- Year Escalation 26
  1.0861,                                 !- Year Escalation 27
  1.0890,                                 !- Year Escalation 28
  1.0920,                                 !- Year Escalation 29
  1.0950;                                 !- Year Escalation 30

Building,
  Building 1,                             !- Name
  ,                                       !- North Axis {deg}
  ,                                       !- Terrain
  ,                                       !- Loads Convergence Tolerance Value {W}
  ,                                       !- Temperature Convergence Tolerance Value {deltaC}
  ,                                       !- Solar Distribution
  ,                                       !- Maximum Number of Warmup Days
  ;                                       !- Minimum Number of Warmup Days

Zone,
  Thermal Zone 1,                         !- Name
  ,                                       !- Direction of Relative North {deg}
  0,                                      !- X Origin {m}
  24,                                     !- Y Origin {m}
  0,                                      !- Z Origin {m}
  ,                                       !- Type
  1,                                      !- Multiplier
  ,                                       !- Ceiling Height {m}
  ,                                       !- Volume {m3}
  ,                                       !- Floor Area {m2}
  ,                                       !- Zone Inside Convection Algorithm
  ,                                       !- Zone Outside Convection Algorithm
  Yes;                                    !- Part of Total Floor Area

Space,
  Space 108,                              !- Name
  Thermal Zone 1,                         !- Zone Name
  ,                                       !- Ceiling Height {m}
  ,                                       !- Volume {m3}
  ,                                       !- Floor Area {m2}
  MURB small 1;                           !- Space Type

SpaceList,
  MURB small 1,                           !- Name
  Space 108,                              !- Space Name 1
  Space 101,                              !- Space Name 2
  Space 103,                              !- Space Name 3
  Space 104,                              !- Space Name 4
  Space 230,                              !- Space Name 5
  Space 109,                              !- Space Name 6
  Space 107,                              !- Space Name 7
  Space 105,                              !- Space Name 8
  Space 106,                              !- Space Name 9
  Space 211,                              !- Space Name 10
  Space 206,                              !- Space Name 11
  Space 110,                              !- Space Name 12
  Space 111,                              !- Space Name 13
  Space 201,                              !- Space Name 14
  Space 204,                              !- Space Name 15
  Space 203,                              !- Space Name 16
  Space 205,                              !- Space Name 17
  Space 207,                              !- Space Name 18
  Space 229,                              !- Space Name 19
  Space 226,                              !- Space Name 20
  Space 208,                              !- Space Name 21
  Space 209,                              !- Space Name 22
  Space 219,                              !- Space Name 23
  Space 210,                              !- Space Name 24
  Space 212,                              !- Space Name 25
  Space 213,                              !- Space Name 26
  Space 214,                              !- Space Name 27
  Space 218,                              !- Space Name 28
  Space 215,                              !- Space Name 29
  Space 216,                              !- Space Name 30
  Space 217,                              !- Space Name 31
  Space 220,                              !- Space Name 32
  Space 221,                              !- Space Name 33
  Space 223,                              !- Space Name 34
  Space 224,                              !- Space Name 35
  Space 225,                              !- Space Name 36
  Space 227,                              !- Space Name 37
  Space 231,                              !- Space Name 38
  Space 232,                              !- Space Name 39
  Space 233;                              !- Space Name 40

People,
  People 3,                               !- Name
  MURB small 1,                           !- Zone or ZoneList or Space or SpaceList Name
  MidriseApartment Apartment Occ 3,       !- Number of People Schedule Name
  People/Area,                            !- Number of People Calculation Method
  ,                                       !- Number of People
  0.0283090843959466,                     !- People per Floor Area {person/m2}
  ,                                       !- Floor Area per Person {m2/person}
  0.3,                                    !- Fraction Radiant
  ,                                       !- Sensible Heat Fraction
  MidriseApartment Activity 3;            !- Activity Level Schedule Name

ScheduleTypeLimits,
  Fractional 42,                          !- Name
  0,                                      !- Lower Limit Value {BasedOnField A3}
  1,                                      !- Upper Limit Value {BasedOnField A3}
  Continuous;                             !- Numeric Type

Schedule:Day:Interval,
  MidriseApartment Apartment Occ Default 2, !- Name
  Fractional 42,                          !- Schedule Type Limits Name
  No,                                     !- Interpolate to Timestep
  07:00,                                  !- Time 1 {hh:mm}
  1,                                      !- Value Until Time 1
  08:00,                                  !- Time 2 {hh:mm}
  0.85,                                   !- Value Until Time 2
  09:00,                                  !- Time 3 {hh:mm}
  0.39,                                   !- Value Until Time 3
  16:00,                                  !- Time 4 {hh:mm}
  0.25,                                   !- Value Until Time 4
  17:00,                                  !- Time 5 {hh:mm}
  0.3,                                    !- Value Until Time 5
  18:00,                                  !- Time 6 {hh:mm}
  0.52,                                   !- Value Until Time 6
  21:00,                                  !- Time 7 {hh:mm}
  0.87,                                   !- Value Until Time 7
  24:00,                                  !- Time 8 {hh:mm}
  1;                                      !- Value Until Time 8

Schedule:Week:Daily,
  MidriseApartment Apartment Occ 3 Week Rule - Jan1-Dec31, !- Name
  MidriseApartment Apartment Occ Default 2, !- Sunday Schedule:Day Name
  MidriseApartment Apartment Occ Default 2, !- Monday Schedule:Day Name
  MidriseApartment Apartment Occ Default 2, !- Tuesday Schedule:Day Name
  MidriseApartment Apartment Occ Default 2, !- Wednesday Schedule:Day Name
  MidriseApartment Apartment Occ Default 2, !- Thursday Schedule:Day Name
  MidriseApartment Apartment Occ Default 2, !- Friday Schedule:Day Name
  MidriseApartment Apartment Occ Default 2, !- Saturday Schedule:Day Name
  MidriseApartment Apartment Occ Default 2, !- Holiday Schedule:Day Name
  MidriseApartment Apartment Occ Summer Design Day 3, !- SummerDesignDay Schedule:Day Name
  MidriseApartment Apartment Occ Winter Design Day 3, !- WinterDesignDay Schedule:Day Name
  MidriseApartment Apartment Occ Default 2, !- CustomDay1 Schedule:Day Name
  MidriseApartment Apartment Occ Default 2; !- CustomDay2 Schedule:Day Name

Schedule:Year,
  MidriseApartment Apartment Occ 3,       !- Name
  Fractional 42,                          !- Schedule Type Limits Name
  MidriseApartment Apartment Occ 3 Week Rule - Jan1-Dec31, !- Schedule:Week Name 1
  1,                                      !- Start Month 1
  1,                                      !- Start Day 1
  12,                                     !- End Month 1
  31;                                     !- End Day 1

Schedule:Day:Interval,
  MidriseApartment Apartment Occ Summer Design Day 3, !- Name
  Fractional 42,                          !- Schedule Type Limits Name
  No,                                     !- Interpolate to Timestep
  07:00,                                  !- Time 1 {hh:mm}
  1,                                      !- Value Until Time 1
  08:00,                                  !- Time 2 {hh:mm}
  0.85,                                   !- Value Until Time 2
  09:00,                                  !- Time 3 {hh:mm}
  0.39,                                   !- Value Until Time 3
  16:00,                                  !- Time 4 {hh:mm}
  0.25,                                   !- Value Until Time 4
  17:00,                                  !- Time 5 {hh:mm}
  0.3,                                    !- Value Until Time 5
  18:00,                                  !- Time 6 {hh:mm}
  0.52,                                   !- Value Until Time 6
  21:00,                                  !- Time 7 {hh:mm}
  0.87,                                   !- Value Until Time 7
  24:00,                                  !- Time 8 {hh:mm}
  1;                                      !- Value Until Time 8

Schedule:Day:Interval,
  MidriseApartment Apartment Occ Winter Design Day 3, !- Name
  Fractional 42,                          !- Schedule Type Limits Name
  No,                                     !- Interpolate to Timestep
  07:00,                                  !- Time 1 {hh:mm}
  1,                                      !- Value Until Time 1
  08:00,                                  !- Time 2 {hh:mm}
  0.85,                                   !- Value Until Time 2
  09:00,                                  !- Time 3 {hh:mm}
  0.39,                                   !- Value Until Time 3
  16:00,                                  !- Time 4 {hh:mm}
  0.25,                                   !- Value Until Time 4
  17:00,                                  !- Time 5 {hh:mm}
  0.3,                                    !- Value Until Time 5
  18:00,                                  !- Time 6 {hh:mm}
  0.52,                                   !- Value Until Time 6
  21:00,                                  !- Time 7 {hh:mm}
  0.87,                                   !- Value Until Time 7
  24:00,                                  !- Time 8 {hh:mm}
  1;                                      !- Value Until Time 8

ScheduleTypeLimits,
  ActivityLevel,                          !- Name
  0,                                      !- Lower Limit Value {BasedOnField A3}
  ,                                       !- Upper Limit Value {BasedOnField A3}
  Continuous,                             !- Numeric Type
  activitylevel;                          !- Unit Type

Schedule:Day:Interval,
  MidriseApartment Activity Default 2,    !- Name
  ActivityLevel,                          !- Schedule Type Limits Name
  No,                                     !- Interpolate to Timestep
  24:00,                                  !- Time 1 {hh:mm}
  120;                                    !- Value Until Time 1

Schedule:Week:Daily,
  MidriseApartment Activity 3 Week Rule - Jan1-Dec31, !- Name
  MidriseApartment Activity Default 2,    !- Sunday Schedule:Day Name
  MidriseApartment Activity Default 2,    !- Monday Schedule:Day Name
  MidriseApartment Activity Default 2,    !- Tuesday Schedule:Day Name
  MidriseApartment Activity Default 2,    !- Wednesday Schedule:Day Name
  MidriseApartment Activity Default 2,    !- Thursday Schedule:Day Name
  MidriseApartment Activity Default 2,    !- Friday Schedule:Day Name
  MidriseApartment Activity Default 2,    !- Saturday Schedule:Day Name
  MidriseApartment Activity Default 2,    !- Holiday Schedule:Day Name
  MidriseApartment Activity Summer Design Day 3, !- SummerDesignDay Schedule:Day Name
  MidriseApartment Activity Winter Design Day 3, !- WinterDesignDay Schedule:Day Name
  MidriseApartment Activity Default 2,    !- CustomDay1 Schedule:Day Name
  MidriseApartment Activity Default 2;    !- CustomDay2 Schedule:Day Name

Schedule:Year,
  MidriseApartment Activity 3,            !- Name
  ActivityLevel,                          !- Schedule Type Limits Name
  MidriseApartment Activity 3 Week Rule - Jan1-Dec31, !- Schedule:Week Name 1
  1,                                      !- Start Month 1
  1,                                      !- Start Day 1
  12,                                     !- End Month 1
  31;                                     !- End Day 1

Schedule:Day:Interval,
  MidriseApartment Activity Summer Design Day 3, !- Name
  ActivityLevel,                          !- Schedule Type Limits Name
  No,                                     !- Interpolate to Timestep
  24:00,                                  !- Time 1 {hh:mm}
  120;                                    !- Value Until Time 1

Schedule:Day:Interval,
  MidriseApartment Activity Winter Design Day 3, !- Name
  ActivityLevel,                          !- Schedule Type Limits Name
  No,                                     !- Interpolate to Timestep
  24:00,                                  !- Time 1 {hh:mm}
  120;                                    !- Value Until Time 1

ElectricEquipment,
  Electric Equipment 3,                   !- Name
  MURB small 1,                           !- Zone or ZoneList or Space or SpaceList Name
  MURB Appliances and lighting,           !- Schedule Name
  Watts/Area,                             !- Design Level Calculation Method
  ,                                       !- Design Level {W}
  8.15,                                   !- Watts per Zone Floor Area {W/m2}
  ,                                       !- Watts per Person {W/person}
  0,                                      !- Fraction Latent
  0.5,                                    !- Fraction Radiant
  0,                                      !- Fraction Lost
  General;                                !- End-Use Subcategory

Schedule:Day:Interval,
  MURB Weekend schedule,                  !- Name
  Fractional 42,                          !- Schedule Type Limits Name
  No,                                     !- Interpolate to Timestep
  01:00,                                  !- Time 1 {hh:mm}
  0.617,                                  !- Value Until Time 1
  02:00,                                  !- Time 2 {hh:mm}
  0.543,                                  !- Value Until Time 2
  03:00,                                  !- Time 3 {hh:mm}
  0.504,                                  !- Value Until Time 3
  04:00,                                  !- Time 4 {hh:mm}
  0.475,                                  !- Value Until Time 4
  05:00,                                  !- Time 5 {hh:mm}
  0.463,                                  !- Value Until Time 5
  06:00,                                  !- Time 6 {hh:mm}
  0.465,                                  !- Value Until Time 6
  07:00,                                  !- Time 7 {hh:mm}
  0.483,                                  !- Value Until Time 7
  08:00,                                  !- Time 8 {hh:mm}
  0.547,                                  !- Value Until Time 8
  09:00,                                  !- Time 9 {hh:mm}
  0.62,                                   !- Value Until Time 9
  10:00,                                  !- Time 10 {hh:mm}
  0.684,                                  !- Value Until Time 10
  11:00,                                  !- Time 11 {hh:mm}
  0.736,                                  !- Value Until Time 11
  12:00,                                  !- Time 12 {hh:mm}
  0.778,                                  !- Value Until Time 12
  13:00,                                  !- Time 13 {hh:mm}
  0.824,                                  !- Value Until Time 13
  14:00,                                  !- Time 14 {hh:mm}
  0.817,                                  !- Value Until Time 14
  15:00,                                  !- Time 15 {hh:mm}
  0.784,                                  !- Value Until Time 15
  16:00,                                  !- Time 16 {hh:mm}
  0.776,                                  !- Value Until Time 16
  17:00,                                  !- Time 17 {hh:mm}
  0.793,                                  !- Value Until Time 17
  18:00,                                  !- Time 18 {hh:mm}
  0.86,                                   !- Value Until Time 18
  19:00,                                  !- Time 19 {hh:mm}
  0.909,                                  !- Value Until Time 19
  20:00,                                  !- Time 20 {hh:mm}
  0.886,                                  !- Value Until Time 20
  21:00,                                  !- Time 21 {hh:mm}
  0.849,                                  !- Value Until Time 21
  22:00,                                  !- Time 22 {hh:mm}
  0.821,                                  !- Value Until Time 22
  23:00,                                  !- Time 23 {hh:mm}
  0.774,                                  !- Value Until Time 23
  24:00,                                  !- Time 24 {hh:mm}
  0.701;                                  !- Value Until Time 24

Schedule:Day:Interval,
  MURB Weekday,                           !- Name
  Fractional 42,                          !- Schedule Type Limits Name
  No,                                     !- Interpolate to Timestep
  01:00,                                  !- Time 1 {hh:mm}
  0.62,                                   !- Value Until Time 1
  02:00,                                  !- Time 2 {hh:mm}
  0.555,                                  !- Value Until Time 2
  03:00,                                  !- Time 3 {hh:mm}
  0.513,                                  !- Value Until Time 3
  04:00,                                  !- Time 4 {hh:mm}
  0.494,                                  !- Value Until Time 4
  05:00,                                  !- Time 5 {hh:mm}
  0.48,                                   !- Value Until Time 5
  06:00,                                  !- Time 6 {hh:mm}
  0.478,                                  !- Value Until Time 6
  07:00,                                  !- Time 7 {hh:mm}