
Version,
  23.1;                                   !- Version Identifier

Timestep,
  6;                                      !- Number of Timesteps per Hour

LifeCycleCost:Parameters,
  Life Cycle Cost Parameters,             !- Name
  EndOfYear,                              !- Discounting Convention
  ConstantDollar,                         !- Inflation Approach
  0.03,                                   !- Real Discount Rate
  ,                                       !- Nominal Discount Rate
  ,                                       !- Inflation
  ,                                       !- Base Date Month
  2011,                                   !- Base Date Year
  ,                                       !- Service Date Month
  2011,                                   !- Service Date Year
  25,                                     !- Length of Study Period in Years
  ,                                       !- Tax rate
  None;                                   !- Depreciation Method

LifeCycleCost:UsePriceEscalation,
  U.S. Avg  Commercial-Electricity,       !- Name
  Electricity,                            !- Resource
  2011,                                   !- Escalation Start Year
  January,                                !- Escalation Start Month
  0.9838,                                 !- Year Escalation 1
  0.9730,                                 !- Year Escalation 2
  0.9632,                                 !- Year Escalation 3
  0.9611,                                 !- Year Escalation 4
  0.9571,                                 !- Year Escalation 5
  0.9553,                                 !- Year Escalation 6
  0.9539,                                 !- Year Escalation 7
  0.9521,                                 !- Year Escalation 8
  0.9546,                                 !- Year Escalation 9
  0.9550,                                 !- Year Escalation 10
  0.9553,                                 !- Year Escalation 11
  0.9564,                                 !- Year Escalation 12
  0.9575,                                 !- Year Escalation 13
  0.9596,                                 !- Year Escalation 14
  0.9618,                                 !- Year Escalation 15
  0.9614,                                 !- Year Escalation 16
  0.9618,                                 !- Year Escalation 17
  0.9618,                                 !- Year Escalation 18
  0.9593,                                 !- Year Escalation 19
  0.9589,                                 !- Year Escalation 20
  0.9607,                                 !- Year Escalation 21
  0.9625,                                 !- Year Escalation 22
  0.9650,                                 !- Year Escalation 23
  0.9708,                                 !- Year Escalation 24
  0.9751,                                 !- Year Escalation 25
  0.9762,                                 !- Year Escalation 26
  0.9766,                                 !- Year Escalation 27
  0.9766,                                 !- Year Escalation 28
  0.9769,                                 !- Year Escalation 29
  0.9773;                                 !- Year Escalation 30

LifeCycleCost:UsePriceEscalation,
  U.S. Avg  Commercial-Distillate Oil,    !- Name
  FuelOilNo1,                             !- Resource
  2011,                                   !- Escalation Start Year
  January,                                !- Escalation Start Month
  0.9714,                                 !- Year Escalation 1
  0.9730,                                 !- Year Escalation 2
  0.9942,                                 !- Year Escalation 3
  1.0164,                                 !- Year Escalation 4
  1.0541,                                 !- Year Escalation 5
  1.0928,                                 !- Year Escalation 6
  1.1267,                                 !- Year Escalation 7
  1.1580,                                 !- Year Escalation 8
  1.1792,                                 !- Year Escalation 9
  1.1967,                                 !- Year Escalation 10
  1.2200,                                 !- Year Escalation 11
  1.2333,                                 !- Year Escalation 12
  1.2566,                                 !- Year Escalation 13
  1.2709,                                 !- Year Escalation 14
  1.2826,                                 !- Year Escalation 15
  1.2985,                                 !- Year Escalation 16
  1.3102,                                 !- Year Escalation 17
  1.3250,                                 !- Year Escalation 18
  1.3261,                                 !- Year Escalation 19
  1.3282,                                 !- Year Escalation 20
  1.3324,                                 !- Year Escalation 21
  1.3356,                                 !- Year Escalation 22
  1.3431,                                 !- Year Escalation 23
  1.3510,                                 !- Year Escalation 24
  1.3568,                                 !- Year Escalation 25
  1.3606,                                 !- Year Escalation 26
  1.3637,                                 !- Year Escalation 27
  1.3674,                                 !- Year Escalation 28
  1.3706,                                 !- Year Escalation 29
  1.3743;                                 !- Year Escalation 30

LifeCycleCost:UsePriceEscalation,
  U.S. Avg  Commercial-Residual Oil,      !- Name
  FuelOilNo2,                             !- Resource
  2011,                                   !- Escalation Start Year
  January,                                !- Escalation Start Month
  0.8469,                                 !- Year Escalation 1
  0.8257,                                 !- Year Escalation 2
  0.8681,                                 !- Year Escalation 3
  0.8988,                                 !- Year Escalation 4
  0.9289,                                 !- Year Escalation 5
  0.9604,                                 !- Year Escalation 6
  0.9897,                                 !- Year Escalation 7
  1.0075,                                 !- Year Escalation 8
  1.0314,                                 !- Year Escalation 9
  1.0554,                                 !- Year Escalation 10
  1.0861,                                 !- Year Escalation 11
  1.1278,                                 !- Year Escalation 12
  1.1497,                                 !- Year Escalation 13
  1.1620,                                 !- Year Escalation 14
  1.1743,                                 !- Year Escalation 15
  1.1852,                                 !- Year Escalation 16
  1.1948,                                 !- Year Escalation 17
  1.2037,                                 !- Year Escalation 18
  1.2071,                                 !- Year Escalation 19
  1.2119,                                 !- Year Escalation 20
  1.2139,                                 !- Year Escalation 21
  1.2194,                                 !- Year Escalation 22
  1.2276,                                 !- Year Escalation 23
  1.2365,                                 !- Year Escalation 24
  1.2420,                                 !- Year Escalation 25
  1.2461,                                 !- Year Escalation 26
  1.2509,                                 !- Year Escalation 27
  1.2550,                                 !- Year Escalation 28
  1.2591,                                 !- Year Escalation 29
  1.2638;                                 !- Year Escalation 30

LifeCycleCost:UsePriceEscalation,
  U.S. Avg  Commercial-Natural gas,       !- Name
  NaturalGas,                             !- Resource
  2011,                                   !- Escalation Start Year
  January,                                !- Escalation Start Month
  0.9823,                                 !- Year Escalation 1
  0.9557,                                 !- Year Escalation 2
  0.9279,                                 !- Year Escalation 3
  0.9257,                                 !- Year Escalation 4
  0.9346,                                 !- Year Escalation 5
  0.9412,                                 !- Year Escalation 6
  0.9512,                                 !- Year Escalation 7
  0.9645,                                 !- Year Escalation 8
  0.9856,                                 !- Year Escalation 9
  1.0067,                                 !- Year Escalation 10
  1.0222,                                 !- Year Escalation 11
  1.0410,                                 !- Year Escalation 12
  1.0610,                                 !- Year Escalation 13
  1.0787,                                 !- Year Escalation 14
  1.0942,                                 !- Year Escalation 15
  1.1098,                                 !- Year Escalation 16
  1.1220,                                 !- Year Escalation 17
  1.1308,                                 !- Year Escalation 18
  1.1386,                                 !- Year Escalation 19
  1.1486,                                 !- Year Escalation 20
  1.1619,                                 !- Year Escalation 21
  1.1763,                                 !- Year Escalation 22
  1.1918,                                 !- Year Escalation 23
  1.2118,                                 !- Year Escalation 24
  1.2284,                                 !- Year Escalation 25
  1.2439,                                 !- Year Escalation 26
  1.2605,                                 !- Year Escalation 27
  1.2772,                                 !- Year Escalation 28
  1.2938,                                 !- Year Escalation 29
  1.3115;                                 !- Year Escalation 30

LifeCycleCost:UsePriceEscalation,
  U.S. Avg  Commercial-Coal,              !- Name
  Coal,                                   !- Resource
  2011,                                   !- Escalation Start Year
  January,                                !- Escalation Start Month
  0.9970,                                 !- Year Escalation 1
  1.0089,                                 !- Year Escalation 2
  1.0089,                                 !- Year Escalation 3
  0.9941,                                 !- Year Escalation 4
  0.9941,                                 !- Year Escalation 5
  1.0000,                                 !- Year Escalation 6
  1.0030,                                 !- Year Escalation 7
  1.0059,                                 !- Year Escalation 8
  1.0089,                                 !- Year Escalation 9
  1.0119,                                 !- Year Escalation 10
  1.0148,                                 !- Year Escalation 11
  1.0178,                                 !- Year Escalation 12
  1.0208,                                 !- Year Escalation 13
  1.0267,                                 !- Year Escalation 14
  1.0297,                                 !- Year Escalation 15
  1.0356,                                 !- Year Escalation 16
  1.0415,                                 !- Year Escalation 17
  1.0534,                                 !- Year Escalation 18
  1.0564,                                 !- Year Escalation 19
  1.0593,                                 !- Year Escalation 20
  1.0653,                                 !- Year Escalation 21
  1.0712,                                 !- Year Escalation 22
  1.0742,                                 !- Year Escalation 23
  1.0801,                                 !- Year Escalation 24
  1.0831,                                 !- Year Escalation 25
  1.0831,                                 !- Year Escalation 26
  1.0861,                                 !- Year Escalation 27
  1.0890,                                 !- Year Escalation 28
  1.0920,                                 !- Year Escalation 29
  1.0950;                                 !- Year Escalation 30

Building,
  Building 1,                             !- Name
  ,                                       !- North Axis {deg}
  ,                                       !- Terrain
  ,                                       !- Loads Convergence Tolerance Value {W}
  ,                                       !- Temperature Convergence Tolerance Value {deltaC}
  ,                                       !- Solar Distribution
  ,                                       !- Maximum Number of Warmup Days
  ;                                       !- Minimum Number of Warmup Days

Zone,
  Attic,                                  !- Name
  -0,                                     !- Direction of Relative North {deg}
  1.8288,                                 !- X Origin {m}
  1.143,                                  !- Y Origin {m}
  3.3,                                    !- Z Origin {m}
  ,                                       !- Type
  1,                                      !- Multiplier
  ,                                       !- Ceiling Height {m}
  ,                                       !- Volume {m3}
  ,                                       !- Floor Area {m2}
  ,                                       !- Zone Inside Convection Algorithm
  ,                                       !- Zone Outside Convection Algorithm
  Yes;                                    !- Part of Total Floor Area

Space,
  Space 3,                                !- Name
  Attic,                                  !- Zone Name
  ,                                       !- Ceiling Height {m}
  ,                                       !- Volume {m3}
  ;                                       !- Floor Area {m2}

BuildingSurface:Detailed,
  Surface 16,                             !- Name
  Floor,                                  !- Surface Type
  Residential Pre1980 Entretoit,          !- Construction Name
  Attic,                                  !- Zone Name
  Space 3,                                !- Space Name
  Surface,                                !- Outside Boundary Condition
  Surface 9,                              !- Outside Boundary Condition Object
  NoSun,                                  !- Sun Exposure
  NoWind,                                 !- Wind Exposure
  ,                                       !- View Factor to Ground
  ,                                       !- Number of Vertices
  12, 7.5, 1.80477854883066e-16,          !- X,Y,Z Vertex 1 {m}
  12, -8.68593496085138e-33, 5.41433564649196e-16, !- X,Y,Z Vertex 2 {m}
  5.4287093505321e-33, 8.68593496085136e-33, 9.02389274415327e-16, !- X,Y,Z Vertex 3 {m}
  -5.42870935053214e-33, 7.5, 5.41433564649196e-16; !- X,Y,Z Vertex 4 {m}

BuildingSurface:Detailed,
  Surface 18,                             !- Name
  Roof,                                   !- Surface Type
  Residential Toiture,                    !- Construction Name
  Attic,                                  !- Zone Name
  Space 3,                                !- Space Name
  Outdoors,                               !- Outside Boundary Condition
  ,                                       !- Outside Boundary Condition Object
  SunExposed,                             !- Sun Exposure
  WindExposed,                            !- Wind Exposure
  ,                                       !- View Factor to Ground
  ,                                       !- Number of Vertices
  0, 3.75, 1.875,                         !- X,Y,Z Vertex 1 {m}
  0, -3.40840337485965e-17, 7.90079487029455e-16, !- X,Y,Z Vertex 2 {m}
  12, -3.40840337485965e-17, 7.90079487029455e-16, !- X,Y,Z Vertex 3 {m}
  12, 3.75, 1.875;                        !- X,Y,Z Vertex 4 {m}

BuildingSurface:Detailed,
  Surface 19,                             !- Name
  Wall,                                   !- Surface Type
  Residential Pre1980 Mur Extérieur,     !- Construction Name
  Attic,                                  !- Zone Name
  Space 3,                                !- Space Name
  Outdoors,                               !- Outside Boundary Condition
  ,                                       !- Outside Boundary Condition Object
  SunExposed,                             !- Sun Exposure
  WindExposed,                            !- Wind Exposure
  ,                                       !- View Factor to Ground
  ,                                       !- Number of Vertices
  0, 3.75, 1.875,                         !- X,Y,Z Vertex 1 {m}
  0, 7.5, 7.21911419532262e-16,           !- X,Y,Z Vertex 2 {m}
  0, 0, 7.21911419532262e-16;             !- X,Y,Z Vertex 3 {m}

BuildingSurface:Detailed,
  Surface 20,                             !- Name
  Wall,                                   !- Surface Type
  Residential Pre1980 Mur Extérieur,     !- Construction Name
  Attic,                                  !- Zone Name
  Space 3,                                !- Space Name
  Outdoors,                               !- Outside Boundary Condition
  ,                                       !- Outside Boundary Condition Object
  SunExposed,                             !- Sun Exposure
  WindExposed,                            !- Wind Exposure
  ,                                       !- View Factor to Ground
  ,                                       !- Number of Vertices
  12, 3.75, 1.875,                        !- X,Y,Z Vertex 1 {m}
  12, 0, 7.21911419532262e-16,            !- X,Y,Z Vertex 2 {m}
  12, 7.5, 0;                             !- X,Y,Z Vertex 3 {m}

BuildingSurface:Detailed,
  Surface 21,                             !- Name
  Roof,                                   !- Surface Type
  Residential Toiture,                    !- Construction Name
  Attic,                                  !- Zone Name
  Space 3,                                !- Space Name
  Outdoors,                               !- Outside Boundary Condition
  ,                                       !- Outside Boundary Condition Object
  SunExposed,                             !- Sun Exposure
  WindExposed,                            !- Wind Exposure
  ,                                       !- View Factor to Ground
  ,                                       !- Number of Vertices
  12, 3.75, 1.875,                        !- X,Y,Z Vertex 1 {m}
  12, 7.5, 0,                             !- X,Y,Z Vertex 2 {m}
  -1.57864787815484e-32, 7.5, 7.62142164092592e-17, !- X,Y,Z Vertex 3 {m}
  -1.57864787815484e-32, 3.75, 1.875;     !- X,Y,Z Vertex 4 {m}

Zone,
  Basement,                               !- Name
  -0,                                     !- Direction of Relative North {deg}
  1.8288,                                 !- X Origin {m}
  1.143,                                  !- Y Origin {m}
  0,                                      !- Z Origin {m}
  ,                                       !- Type
  1,                                      !- Multiplier
  ,                                       !- Ceiling Height {m}
  ,                                       !- Volume {m3}
  ,                                       !- Floor Area {m2}
  ,                                       !- Zone Inside Convection Algorithm
  ,                                       !- Zone Outside Convection Algorithm
  Yes;                                    !- Part of Total Floor Area

Space,
  Space 1,                                !- Name
  Basement,                               !- Zone Name
  ,                                       !- Ceiling Height {m}
  ,                                       !- Volume {m3}
  ,                                       !- Floor Area {m2}
  Residential;                            !- Space Type

SpaceList,
  Residential,                            !- Name
  Space 1,                                !- Space Name 1
  Space 2;                                !- Space Name 2

Lights,
  Residential Lighting,                   !- Name
  Residential,                            !- Zone or ZoneList or Space or SpaceList Name
  Residential PlugLoads,                  !- Schedule Name
  Watts/Area,                             !- Design Level Calculation Method
  ,                                       !- Lighting Level {W}
  1.2,                                    !- Watts per Zone Floor Area {W/m2}
  ,                                       !- Watts per Person {W/person}
  ,                                       !- Return Air Fraction
  0.8,                                    !- Fraction Radiant
  0.2,                                    !- Fraction Visible
  1,                                      !- Fraction Replaceable
  General;                                !- End-Use Subcategory

ScheduleTypeLimits,
  Fractional,                             !- Name
  0,                                      !- Lower Limit Value {BasedOnField A3}
  1,                                      !- Upper Limit Value {BasedOnField A3}
  Continuous;                             !- Numeric Type

Schedule:Day:Interval,
  Schedule Day 11,                        !- Name
  Fractional,                             !- Schedule Type Limits Name
  No,                                     !- Interpolate to Timestep
  01:00,                                  !- Time 1 {hh:mm}
  0.61,                                   !- Value Until Time 1
  02:00,                                  !- Time 2 {hh:mm}
  0.58,                                   !- Value Until Time 2
  05:00,                                  !- Time 3 {hh:mm}
  0.56,                                   !- Value Until Time 3
  06:00,                                  !- Time 4 {hh:mm}
  0.580000000000006,                      !- Value Until Time 4
  07:00,                                  !- Time 5 {hh:mm}
  0.63,                                   !- Value Until Time 5
  08:00,                                  !- Time 6 {hh:mm}
  0.75,                                   !- Value Until Time 6
  09:00,                                  !- Time 7 {hh:mm}
  0.89,                                   !- Value Until Time 7
  13:00,                                  !- Time 8 {hh:mm}
  0.95,                                   !- Value Until Time 8
  14:00,                                  !- Time 9 {hh:mm}
  0.89,                                   !- Value Until Time 9
  16:00,                                  !- Time 10 {hh:mm}
  0.83,                                   !- Value Until Time 10
  17:00,                                  !- Time 11 {hh:mm}
  0.85,                                   !- Value Until Time 11
  18:00,                                  !- Time 12 {hh:mm}
  0.95,                                   !- Value Until Time 12
  19:00,                                  !- Time 13 {hh:mm}
  1,                                      !- Value Until Time 13
  20:00,                                  !- Time 14 {hh:mm}
  0.98,                                   !- Value Until Time 14
  21:00,                                  !- Time 15 {hh:mm}
  0.94,                                   !- Value Until Time 15
  22:00,                                  !- Time 16 {hh:mm}
  0.9,                                    !- Value Until Time 16
  23:00,                                  !- Time 17 {hh:mm}
  0.77,                                   !- Value Until Time 17
  24:00,                                  !- Time 18 {hh:mm}
  0.65;                                   !- Value Until Time 18

Schedule:Day:Interval,
  Schedule Day 3,                         !- Name
  Fractional,                             !- Schedule Type Limits Name
  No,                                     !- Interpolate to Timestep
  01:00,                                  !- Time 1 {hh:mm}
  0.58,                                   !- Value Until Time 1
  02:00,                                  !- Time 2 {hh:mm}
  0.54,                                   !- Value Until Time 2
  05:00,                                  !- Time 3 {hh:mm}
  0.530000000000001,                      !- Value Until Time 3
  06:00,                                  !- Time 4 {hh:mm}
  0.580000000000006,                      !- Value Until Time 4
  07:00,                                  !- Time 5 {hh:mm}
  0.670000000000004,                      !- Value Until Time 5
  08:00,                                  !- Time 6 {hh:mm}
  0.77,                                   !- Value Until Time 6
  13:00,                                  !- Time 7 {hh:mm}
  0.820000000000005,                      !- Value Until Time 7
  14:00,                                  !- Time 8 {hh:mm}
  0.77,                                   !- Value Until Time 8
  16:00,                                  !- Time 9 {hh:mm}
  0.740000000000005,                      !- Value Until Time 9
  17:00,                                  !- Time 10 {hh:mm}
  0.8,                                    !- Value Until Time 10
  18:00,                                  !- Time 11 {hh:mm}
  0.95,                                   !- Value Until Time 11
  19:00,                                  !- Time 12 {hh:mm}
  1,                                      !- Value Until Time 12
  20:00,                                  !- Time 13 {hh:mm}
  0.98,                                   !- Value Until Time 13
  21:00,                                  !- Time 14 {hh:mm}
  0.94,                                   !- Value Until Time 14
  22:00,                                  !- Time 15 {hh:mm}
  0.9,                                    !- Value Until Time 15
  23:00,                                  !- Time 16 {hh:mm}
  0.77,                                   !- Value Until Time 16
  24:00,                                  !- Time 17 {hh:mm}
  0.65;                                   !- Value Until Time 17

Schedule:Week:Daily,
  Residential PlugLoads Week Rule - Jan1-Dec31, !- Name
  Schedule Day 11,                        !- Sunday Schedule:Day Name
  Schedule Day 3,                         !- Monday Schedule:Day Name
  Schedule Day 3,                         !- Tuesday Schedule:Day Name
  Schedule Day 3,                         !- Wednesday Schedule:Day Name
  Schedule Day 3,                         !- Thursday Schedule:Day Name
  Schedule Day 3,                         !- Friday Schedule:Day Name
  Schedule Day 11,                        !- Saturday Schedule:Day Name
  Schedule Day 3,                         !- Holiday Schedule:Day Name
  Schedule Day 3,                         !- SummerDesignDay Schedule:Day Name
  Schedule Day 3,                         !- WinterDesignDay Schedule:Day Name
  Schedule Day 3,                         !- CustomDay1 Schedule:Day Name
  Schedule Day 3;                         !- CustomDay2 Schedule:Day Name

Schedule:Year,
  Residential PlugLoads,                  !- Name
  Fractional,                             !- Schedule Type Limits Name
  Residential PlugLoads Week Rule - Jan1-Dec31, !- Schedule:Week Name 1
  1,                                      !- Start Month 1
  1,                                      !- Start Day 1
  12,                                     !- End Month 1
  31;                                     !- End Day 1

People,
  Residential People,                     !- Name
  Residential,                            !- Zone or ZoneList or Space or SpaceList Name
  Residential Occupancy,                  !- Number of People Schedule Name
  People,                                 !- Number of People Calculation Method
  1,                                      !- Number of People
  ,                                       !- People per Floor Area {person/m2}
  ,                                       !- Floor Area per Person {m2/person}
  0.3,                                    !- Fraction Radiant
  ,                                       !- Sensible Heat Fraction
  Residential Occupant Activity;          !- Activity Level Schedule Name

Schedule:Day:Interval,
  Schedule Day 15,                        !- Name
  Fractional,                             !- Schedule Type Limits Name
  No,                                     !- Interpolate to Timestep
  08:00,                                  !- Time 1 {hh:mm}
  1,                                      !- Value Until Time 1
  09:00,                                  !- Time 2 {hh:mm}
  0.89,                                   !- Value Until Time 2
  13:00,                                  !- Time 3 {hh:mm}
  0.95,                                   !- Value Until Time 3
  14:00,                                  !- Time 4 {hh:mm}
  0.89,                                   !- Value Until Time 4
  16:00,                                  !- Time 5 {hh:mm}
  0.83,                                   !- Value Until Time 5
  17:00,                                  !- Time 6 {hh:mm}
  0.85,                                   !- Value Until Time 6
  18:00,                                  !- Time 7 {hh:mm}
  0.95,                                   !- Value Until Time 7
  19:00,                                  !- Time 8 {hh:mm}
  1,                                      !- Value Until Time 8
  20:00,                                  !- Time 9 {hh:mm}
  0.98,                                   !- Value Until Time 9
  21:00,                                  !- Time 10 {hh:mm}
  0.94,                                   !- Value Until Time 10
  24:00,                                  !- Time 11 {hh:mm}
  1;                                      !- Value Until Time 11

Schedule:Day:Interval,
  Schedule Day 14,                        !- Name
  Fractional,                             !- Schedule Type Limits Name
  No,                                     !- Interpolate to Timestep
  08:00,                                  !- Time 1 {hh:mm}
  1,                                      !- Value Until Time 1
  13:00,                                  !- Time 2 {hh:mm}
  0.820000000000005,                      !- Value Until Time 2
  14:00,                                  !- Time 3 {hh:mm}
  0.77,                                   !- Value Until Time 3
  16:00,                                  !- Time 4 {hh:mm}