
OS:Version,
  {45a83c68-3afb-45e7-9f82-d1a26aaed13f}, !- Handle
  3.7.0;                                  !- Version Identifier

OS:Site,
  {f394e19f-bb94-4471-a47a-96e596b12ccb}, !- Handle
  Site 1,                                 !- Name
  ,                                       !- Latitude {deg}
  ,                                       !- Longitude {deg}
  ,                                       !- Time Zone {hr}
  ,                                       !- Elevation {m}
  ;                                       !- Terrain

OS:YearDescription,
  {d1015601-a5f9-49f6-9e7a-bcdffa931c5b}; !- Handle

OS:ClimateZones,
  {e54fe7f8-38c7-47a9-ae63-ebe0c893074f}, !- Handle
  ASHRAE,                                 !- Climate Zone Institution Name 1
  ANSI/ASHRAE Standard 169,               !- Climate Zone Document Name 1
  2006,                                   !- Climate Zone Document Year 1
  ,                                       !- Climate Zone Value 1
  CEC,                                    !- Climate Zone Institution Name 2
  California Climate Zone Descriptions,   !- Climate Zone Document Name 2
  1995,                                   !- Climate Zone Document Year 2
  ;                                       !- Climate Zone Value 2

OS:Building,
  {fd737f96-a524-4694-b8da-29fc51a9475c}, !- Handle
  Building 1,                             !- Name
  ,                                       !- Building Sector Type
  ,                                       !- North Axis {deg}
  ,                                       !- Nominal Floor to Floor Height {m}
  ,                                       !- Space Type Name
  ,                                       !- Default Construction Set Name
  ;                                       !- Default Schedule Set Name

OS:Facility,
  {0a12f96c-7135-4baa-9028-a5fb97129670}; !- Handle

OS:SimulationControl,
  {6ef1eb2e-0653-4e8c-b9d8-e106a2fccdf4}; !- Handle

OS:Sizing:Parameters,
  {38fd1444-fb59-473f-97b9-dc806c354852}, !- Handle
  1.25,                                   !- Heating Sizing Factor
  1.15;                                   !- Cooling Sizing Factor

OS:Timestep,
  {23d6691f-0438-4890-9fd0-67526d12b732}, !- Handle
  6;                                      !- Number of Timesteps per Hour

OS:ShadowCalculation,
  {03be2c79-b7ff-4d81-984e-24df51ab7dec}, !- Handle
  PolygonClipping,                        !- Shading Calculation Method
  ,                                       !- Shading Calculation Update Frequency Method
  20,                                     !- Shading Calculation Update Frequency
  15000,                                  !- Maximum Figures in Shadow Overlap Calculations
  ,                                       !- Polygon Clipping Algorithm
  512,                                    !- Pixel Counting Resolution
  ,                                       !- Sky Diffuse Modeling Algorithm
  No,                                     !- Output External Shading Calculation Results
  No,                                     !- Disable Self-Shading Within Shading Zone Groups
  No;                                     !- Disable Self-Shading From Shading Zone Groups to Other Zones

OS:HeatBalanceAlgorithm,
  {5aed2155-064f-4a45-b434-ed68707b8e3d}, !- Handle
  ConductionTransferFunction,             !- Algorithm
  200;                                    !- Surface Temperature Upper Limit {C}

OS:RunPeriod,
  {8c2ee3b0-80e7-45dd-9d98-9fd106e5bd7d}, !- Handle
  Run Period 1,                           !- Name
  1,                                      !- Begin Month
  1,                                      !- Begin Day of Month
  12,                                     !- End Month
  31,                                     !- End Day of Month
  ,                                       !- Use Weather File Holidays and Special Days
  ,                                       !- Use Weather File Daylight Saving Period
  ,                                       !- Apply Weekend Holiday Rule
  ,                                       !- Use Weather File Rain Indicators
  ,                                       !- Use Weather File Snow Indicators
  ;                                       !- Number of Times Runperiod to be Repeated

OS:LifeCycleCost:Parameters,
  {db9d4315-8ab0-4612-9fb5-955b1671a812}, !- Handle
  ,                                       !- Analysis Type
  ,                                       !- Discounting Convention
  ,                                       !- Inflation Approach
  ,                                       !- Real Discount Rate
  ,                                       !- Nominal Discount Rate
  ,                                       !- Inflation
  ,                                       !- Base Date Month
  ,                                       !- Base Date Year
  ,                                       !- Service Date Month
  ,                                       !- Service Date Year
  ;                                       !- Length of Study Period in Years

OS:DefaultConstructionSet,
  {a90bc378-56df-4028-99a3-ed3798511cb3}, !- Handle
  AQ_MURB_19802010_Zone_6A,               !- Name
  {edc2613a-5631-48b6-9880-46f132ee08fd}, !- Default Exterior Surface Constructions Name
  {88a1d41a-7c0e-43c0-afb5-d6f5f3a18600}, !- Default Interior Surface Constructions Name
  {64d32d0e-e2db-4974-bb88-9f3f4b5205a7}, !- Default Ground Contact Surface Constructions Name
  {14ee761e-a034-404d-9207-54379e381037}, !- Default Exterior SubSurface Constructions Name
  {85722aaf-b09a-42a6-8a4d-0ff191ada693}, !- Default Interior SubSurface Constructions Name
  ,                                       !- Interior Partition Construction Name
  ,                                       !- Space Shading Construction Name
  ,                                       !- Building Shading Construction Name
  ,                                       !- Site Shading Construction Name
  ;                                       !- Adiabatic Surface Construction Name

OS:DefaultSurfaceConstructions,
  {edc2613a-5631-48b6-9880-46f132ee08fd}, !- Handle
  Default Surface Constructions 1688,     !- Name
  ,                                       !- Floor Construction Name
  ,                                       !- Wall Construction Name
  {56bd52d0-b5e3-4ae5-968c-43be6aab989a}; !- Roof Ceiling Construction Name

OS:DefaultSurfaceConstructions,
  {88a1d41a-7c0e-43c0-afb5-d6f5f3a18600}, !- Handle
  Default Surface Constructions 1689,     !- Name
  ,                                       !- Floor Construction Name
  ,                                       !- Wall Construction Name
  {bd7c5e6c-1b49-4964-a101-2c10c8d8845c}; !- Roof Ceiling Construction Name

OS:DefaultSurfaceConstructions,
  {64d32d0e-e2db-4974-bb88-9f3f4b5205a7}, !- Handle
  Default Surface Constructions 1690,     !- Name
  {ce90104c-39d8-4ed1-b809-1fb8d4d5e833}, !- Floor Construction Name
  {ce90104c-39d8-4ed1-b809-1fb8d4d5e833}, !- Wall Construction Name
  ;                                       !- Roof Ceiling Construction Name

OS:DefaultSubSurfaceConstructions,
  {14ee761e-a034-404d-9207-54379e381037}, !- Handle
  Default Sub Surface Constructions 1124, !- Name
  {33cf714f-8b24-437d-9aa3-b53ad657158a}, !- Fixed Window Construction Name
  {33cf714f-8b24-437d-9aa3-b53ad657158a}, !- Operable Window Construction Name
  ,                                       !- Door Construction Name
  ,                                       !- Glass Door Construction Name
  ,                                       !- Overhead Door Construction Name
  ,                                       !- Skylight Construction Name
  ,                                       !- Tubular Daylight Dome Construction Name
  ;                                       !- Tubular Daylight Diffuser Construction Name

OS:DefaultSubSurfaceConstructions,
  {85722aaf-b09a-42a6-8a4d-0ff191ada693}, !- Handle
  Default Sub Surface Constructions 1125, !- Name
  ,                                       !- Fixed Window Construction Name
  ,                                       !- Operable Window Construction Name
  ,                                       !- Door Construction Name
  ,                                       !- Glass Door Construction Name
  ,                                       !- Overhead Door Construction Name
  ,                                       !- Skylight Construction Name
  ,                                       !- Tubular Daylight Dome Construction Name
  ;                                       !- Tubular Daylight Diffuser Construction Name

OS:Construction,
  {56bd52d0-b5e3-4ae5-968c-43be6aab989a}, !- Handle
  AQ_MURB_2024_Roof 19802010 6A,          !- Name
  {21b4a34f-cfac-4696-acda-dfc5b8540dd3}, !- Surface Rendering Name
  {d625906b-d3f7-440f-a698-cce0cf33c3c9}, !- Layer 1
  {9867742e-a6ae-46b8-baff-9c241ca8bdbe}, !- Layer 2
  {e08f2196-577b-4a68-ba5a-f4bb87df92f4}; !- Layer 3

OS:StandardsInformation:Construction,
  {e2cb73c2-8af0-4bd4-adac-802d9ca6559e}, !- Handle
  {56bd52d0-b5e3-4ae5-968c-43be6aab989a}, !- Construction Name
  ExteriorRoof,                           !- Intended Surface Type
  IEAD;                                   !- Standards Construction Type

OS:Construction,
  {bd7c5e6c-1b49-4964-a101-2c10c8d8845c}, !- Handle
  AQ_MURB_2024_window_Typical Interior Ceiling, !- Name
  {f3b1d926-2832-4fe8-a0fe-83b26764d9b4}, !- Surface Rendering Name
  {5ae9f81c-4ea4-47c9-b2e4-71085ed83122}, !- Layer 1
  {c589668a-38dc-4798-9a2e-af0e91b93ffd}; !- Layer 2

OS:StandardsInformation:Construction,
  {cbed26ad-1403-437f-9dcf-4f51850464dc}, !- Handle
  {bd7c5e6c-1b49-4964-a101-2c10c8d8845c}, !- Construction Name
  InteriorCeiling,                        !- Intended Surface Type
  ;                                       !- Standards Construction Type

OS:Construction,
  {ce90104c-39d8-4ed1-b809-1fb8d4d5e833}, !- Handle
  AQ_MURB_2024_Generic Ground Slab 6A 19802010, !- Name
  {636d2ab0-42c2-4543-8421-b74ad6c2c790}, !- Surface Rendering Name
  {1eefa9fb-9d9a-42ce-b55b-c56bec042c4a}, !- Layer 1
  {3751860b-cd5a-4fd9-9176-b74e31a12e4f}; !- Layer 2

OS:StandardsInformation:Construction,
  {c98765d6-0f85-4652-92cb-08875d60dc94}, !- Handle
  {ce90104c-39d8-4ed1-b809-1fb8d4d5e833}; !- Construction Name

OS:Construction,
  {33cf714f-8b24-437d-9aa3-b53ad657158a}, !- Handle
  AQ_MURB_2024_window_u=3.08,             !- Name
  {10aab6f4-716d-4f71-9d1c-af0585bf9ac4}, !- Surface Rendering Name
  {e237eb9a-e892-42aa-aa23-19decc57ca85}; !- Layer 1

OS:StandardsInformation:Construction,
  {9630d47d-1699-4881-8631-555eaa3172b5}, !- Handle
  {33cf714f-8b24-437d-9aa3-b53ad657158a}; !- Construction Name

OS:Rendering:Color,
  {b286640c-426b-4a79-8d78-3886f4f8f677}, !- Handle
  Rendering Color 336,                    !- Name
  255,                                    !- Rendering Red Value
  240,                                    !- Rendering Green Value
  250;                                    !- Rendering Blue Value

OS:Material,
  {c1cad8e2-0f67-4d00-8af2-66fd8e2313e2}, !- Handle
  G05 25mm wood 1,                        !- Name
  MediumSmooth,                           !- Roughness
  0.0254,                                 !- Thickness {m}
  0.15,                                   !- Conductivity {W/m-K}
  608,                                    !- Density {kg/m3}
  1630,                                   !- Specific Heat {J/kg-K}
  0.9,                                    !- Thermal Absorptance
  0.5,                                    !- Solar Absorptance
  0.5;                                    !- Visible Absorptance

OS:StandardsInformation:Material,
  {57798474-2755-47ac-bbc1-bac831430215}, !- Handle
  {c1cad8e2-0f67-4d00-8af2-66fd8e2313e2}; !- Material Name

OS:Rendering:Color,
  {21904d36-92ca-4a0b-9306-52874bf73694}, !- Handle
  Rendering Color 337,                    !- Name
  144,                                    !- Rendering Red Value
  144,                                    !- Rendering Green Value
  238;                                    !- Rendering Blue Value

OS:Material,
  {878fa227-d7df-4737-8f86-bd6fc7d55a15}, !- Handle
  4 in. Normalweight Concrete Floor 2,    !- Name
  MediumRough,                            !- Roughness
  0.1016,                                 !- Thickness {m}
  2.31,                                   !- Conductivity {W/m-K}
  2321.99999999999,                       !- Density {kg/m3}
  831.999999999997,                       !- Specific Heat {J/kg-K}
  0.9,                                    !- Thermal Absorptance
  0.7,                                    !- Solar Absorptance
  0.7;                                    !- Visible Absorptance

OS:StandardsInformation:Material,
  {ecc54a34-4be0-492a-a807-d694bf06c37b}, !- Handle
  {878fa227-d7df-4737-8f86-bd6fc7d55a15}; !- Material Name

OS:Material:NoMass,
  {30a2d4b1-9c81-40b7-b4a4-18c66551e37d}, !- Handle
  Typical Carpet Pad 4,                   !- Name
  Smooth,                                 !- Roughness
  0.216479986995276,                      !- Thermal Resistance {m2-K/W}
  0.9,                                    !- Thermal Absorptance
  0.7,                                    !- Solar Absorptance
  0.8;                                    !- Visible Absorptance

OS:StandardsInformation:Material,
  {3a95c9fd-8e59-41d7-9bbe-995a634bd6db}, !- Handle
  {30a2d4b1-9c81-40b7-b4a4-18c66551e37d}; !- Material Name

OS:Rendering:Color,
  {123b0b7e-2ea2-4d06-a320-e032a59d5638}, !- Handle
  Rendering Color 636,                    !- Name
  255,                                    !- Rendering Red Value
  147,                                    !- Rendering Green Value
  20;                                     !- Rendering Blue Value

OS:Material,
  {831fbd26-42d7-4835-9267-038da0a23d07}, !- Handle
  1IN Stucco 4,                           !- Name
  Smooth,                                 !- Roughness
  0.0253,                                 !- Thickness {m}
  0.691337354832922,                      !- Conductivity {W/m-K}
  1858.00424829652,                       !- Density {kg/m3}
  836.460315804243,                       !- Specific Heat {J/kg-K}
  0.9,                                    !- Thermal Absorptance
  0.7,                                    !- Solar Absorptance
  0.92;                                   !- Visible Absorptance

OS:StandardsInformation:Material,
  {ddc57e7f-27e6-4cbd-8090-4f2159c5a164}, !- Handle
  {831fbd26-42d7-4835-9267-038da0a23d07}; !- Material Name

OS:Material,
  {2c2b6533-6b01-44d9-b2f6-bae62c5934ba}, !- Handle
  8IN CONCRETE HW RefBldg 2,              !- Name
  Rough,                                  !- Roughness
  0.2032,                                 !- Thickness {m}
  1.31012326132692,                       !- Conductivity {W/m-K}
  2240.0051217353,                        !- Density {kg/m3}
  836.260444761042,                       !- Specific Heat {J/kg-K}
  0.9,                                    !- Thermal Absorptance
  0.7,                                    !- Solar Absorptance
  0.7;                                    !- Visible Absorptance

OS:StandardsInformation:Material,
  {d0a1a5c8-356e-4c3f-ad88-1643e5e8babd}, !- Handle
  {2c2b6533-6b01-44d9-b2f6-bae62c5934ba}; !- Material Name

OS:Material:NoMass,
  {348459ce-299a-4cfe-b308-0abde8fda23e}, !- Handle
  Typical Insulation-R5 GBC,              !- Name
  MediumSmooth,                           !- Roughness
  0.65,                                   !- Thermal Resistance {m2-K/W}
  0.9,                                    !- Thermal Absorptance
  0.7,                                    !- Solar Absorptance
  0.7;                                    !- Visible Absorptance

OS:StandardsInformation:Material,
  {b8bbfcd2-d1bd-491a-9145-c8048f82df90}, !- Handle
  {348459ce-299a-4cfe-b308-0abde8fda23e}; !- Material Name

OS:Material,
  {d733ed9e-db5c-41c9-8f6e-81c757cf0dc0}, !- Handle
  1/2IN Gypsum 2,                         !- Name
  Smooth,                                 !- Roughness
  0.0127,                                 !- Thickness {m}
  0.159892999094056,                      !- Conductivity {W/m-K}
  784.901794665194,                       !- Density {kg/m3}
  829.464829292142,                       !- Specific Heat {J/kg-K}
  0.9,                                    !- Thermal Absorptance
  0.4,                                    !- Solar Absorptance
  0.4;                                    !- Visible Absorptance

OS:StandardsInformation:Material,
  {28a75a42-8dea-496f-8219-b8247b3ed3a4}, !- Handle
  {d733ed9e-db5c-41c9-8f6e-81c757cf0dc0}; !- Material Name

OS:Rendering:Color,
  {21b4a34f-cfac-4696-acda-dfc5b8540dd3}, !- Handle
  Rendering Color 339,                    !- Name
  255,                                    !- Rendering Red Value
  71,                                     !- Rendering Green Value
  99;                                     !- Rendering Blue Value

OS:Material,
  {d625906b-d3f7-440f-a698-cce0cf33c3c9}, !- Handle
  Roof Membrane 1,                        !- Name
  VeryRough,                              !- Roughness
  0.0095,                                 !- Thickness {m}
  0.16,                                   !- Conductivity {W/m-K}
  1121.29,                                !- Density {kg/m3}
  1460,                                   !- Specific Heat {J/kg-K}
  0.9,                                    !- Thermal Absorptance
  0.7,                                    !- Solar Absorptance
  0.7;                                    !- Visible Absorptance

OS:StandardsInformation:Material,
  {75094b55-7524-4219-baf9-4d833757d16b}, !- Handle
  {d625906b-d3f7-440f-a698-cce0cf33c3c9}; !- Material Name

OS:Material:NoMass,
  {9867742e-a6ae-46b8-baff-9c241ca8bdbe}, !- Handle
  Typical Insulation U=0.276,             !- Name
  Smooth,                                 !- Roughness
  3.62,                                   !- Thermal Resistance {m2-K/W}
  0.9,                                    !- Thermal Absorptance
  0.7,                                    !- Solar Absorptance
  0.7;                                    !- Visible Absorptance

OS:StandardsInformation:Material,
  {a4fe3ff9-b264-4e48-93b5-e6ba9040c132}, !- Handle
  {9867742e-a6ae-46b8-baff-9c241ca8bdbe}; !- Material Name

OS:Material,
  {e08f2196-577b-4a68-ba5a-f4bb87df92f4}, !- Handle
  Metal Roof Surface 2,                   !- Name
  Smooth,                                 !- Roughness
  0.000799999999999998,                   !- Thickness {m}
  45.2799999999999,                       !- Conductivity {W/m-K}
  7823.99999999999,                       !- Density {kg/m3}
  499.999999999996,                       !- Specific Heat {J/kg-K}
  0.9,                                    !- Thermal Absorptance
  0.7,                                    !- Solar Absorptance
  0.7;                                    !- Visible Absorptance

OS:StandardsInformation:Material,
  {bc9fd0ca-8156-4644-b1bd-efe19a63376f}, !- Handle
  {e08f2196-577b-4a68-ba5a-f4bb87df92f4}; !- Material Name

OS:Rendering:Color,
  {e0dd84fd-a8e4-420e-868f-34a6a4c433c9}, !- Handle
  Rendering Color 307,                    !- Name
  139,                                    !- Rendering Red Value
  0,                                      !- Rendering Green Value
  0;                                      !- Rendering Blue Value

OS:Material,
  {c589668a-38dc-4798-9a2e-af0e91b93ffd}, !- Handle
  AQ_NC_2024_Standardconcrete,            !- Name
  MediumRough,                            !- Roughness
  0.1016,                                 !- Thickness {m}
  2.5,                                    !- Conductivity {W/m-K}
  2400,                                   !- Density {kg/m3}
  840,                                    !- Specific Heat {J/kg-K}
  0.9,                                    !- Thermal Absorptance
  0.7,                                    !- Solar Absorptance
  0.7;                                    !- Visible Absorptance

OS:StandardsInformation:Material,
  {bcbe91ec-71ee-4f43-b23a-d2c4dd9d33b1}, !- Handle
  {c589668a-38dc-4798-9a2e-af0e91b93ffd}; !- Material Name

OS:Material:NoMass,
  {5ae9f81c-4ea4-47c9-b2e4-71085ed83122}, !- Handle
  CP02 CARPET PAD 1,                      !- Name
  Smooth,                                 !- Roughness
  0.216479986995276,                      !- Thermal Resistance {m2-K/W}
  0.9,                                    !- Thermal Absorptance
  0.7,                                    !- Solar Absorptance
  0.8;                                    !- Visible Absorptance

OS:StandardsInformation:Material,
  {38f69427-7761-403f-a8b0-7a2685acf210}, !- Handle
  {5ae9f81c-4ea4-47c9-b2e4-71085ed83122}; !- Material Name

OS:Rendering:Color,
  {f5f60cca-5832-411d-a3a8-801f4d7aae57}, !- Handle
  Rendering Color 340,                    !- Name
  173,                                    !- Rendering Red Value
  230,                                    !- Rendering Green Value
  216;                                    !- Rendering Blue Value

OS:Material,
  {8fb116c7-0d0b-40df-8fbe-6281f7d496af}, !- Handle
  G01 13mm gypsum board,                  !- Name
  Smooth,                                 !- Roughness
  0.0127,                                 !- Thickness {m}
  0.160030944416258,                      !- Conductivity {W/m-K}
  800.000505207667,                       !- Density {kg/m3}
  1090.7294438736,                        !- Specific Heat {J/kg-K}
  0.9,                                    !- Thermal Absorptance
  0.7,                                    !- Solar Absorptance
  0.5;                                    !- Visible Absorptance

OS:StandardsInformation:Material,
  {effc6089-0c4c-4af9-91e1-df110cb8d3c5}, !- Handle
  {8fb116c7-0d0b-40df-8fbe-6281f7d496af}; !- Material Name

OS:Rendering:Color,
  {f3b1d926-2832-4fe8-a0fe-83b26764d9b4}, !- Handle
  Rendering Color 341,                    !- Name
  72,                                     !- Rendering Red Value
  204,                                    !- Rendering Green Value
  209;                                    !- Rendering Blue Value

OS:Rendering:Color,
  {636d2ab0-42c2-4543-8421-b74ad6c2c790}, !- Handle
  Rendering Color 705,                    !- Name
  188,                                    !- Rendering Red Value
  143,                                    !- Rendering Green Value
  143;                                    !- Rendering Blue Value

OS:Material:NoMass,
  {1eefa9fb-9d9a-42ce-b55b-c56bec042c4a}, !- Handle
  Typical Insulation U=0.459,             !- Name
  Smooth,                                 !- Roughness
  2.17,                                   !- Thermal Resistance {m2-K/W}
  0.9,                                    !- Thermal Absorptance
  0.7,                                    !- Solar Absorptance
  0.7;                                    !- Visible Absorptance

OS:StandardsInformation:Material,
  {f03fe2c4-318a-4390-82ed-082043cf1b70}, !- Handle
  {1eefa9fb-9d9a-42ce-b55b-c56bec042c4a}; !- Material Name

OS:Material,
  {3751860b-cd5a-4fd9-9176-b74e31a12e4f}, !- Handle
  Generic HW Concrete,                    !- Name
  MediumRough,                            !- Roughness
  0.2,                                    !- Thickness {m}
  1.95,                                   !- Conductivity {W/m-K}
  2240,                                   !- Density {kg/m3}
  900,                                    !- Specific Heat {J/kg-K}
  0.9,                                    !- Thermal Absorptance
  0.8,                                    !- Solar Absorptance
  0.8;                                    !- Visible Absorptance

OS:StandardsInformation:Material,
  {4b6938f4-7a33-4e47-b570-97c77ccd8909}, !- Handle
  {3751860b-cd5a-4fd9-9176-b74e31a12e4f}; !- Material Name

OS:Rendering:Color,
  {10aab6f4-716d-4f71-9d1c-af0585bf9ac4}, !- Handle
  Rendering Color 168,                    !- Name
  250,                                    !- Rendering Red Value
  240,                                    !- Rendering Green Value
  230;                                    !- Rendering Blue Value

OS:WindowMaterial:SimpleGlazingSystem,
  {e237eb9a-e892-42aa-aa23-19decc57ca85}, !- Handle
  Fenestration U=3.08 0.66,               !- Name
  3.08,                                   !- U-Factor {W/m2-K}
  0.66,                                   !- Solar Heat Gain Coefficient
  0.21;                                   !- Visible Transmittance

OS:StandardsInformation:Material,
  {50eb2b68-d761-494f-a067-e2d65caf9b1c}, !- Handle
  {e237eb9a-e892-42aa-aa23-19decc57ca85}; !- Material Name

OS:Rendering:Color,
  {23853a1a-921e-4067-a5e4-3935838bb7b0}, !- Handle
  Rendering Color 346,                    !- Name
  211,                                    !- Rendering Red Value
  211,                                    !- Rendering Green Value
  211;                                    !- Rendering Blue Value

OS:Material,
  {8ce52411-ca90-4513-922e-4e5e726f854e}, !- Handle
  F08 Metal surface 1,                    !- Name
  Smooth,                                 !- Roughness
  0.0008,                                 !- Thickness {m}
  45.2800000000001,                       !- Conductivity {W/m-K}
  7823.99999999999,                       !- Density {kg/m3}
  500,                                    !- Specific Heat {J/kg-K}
  0.9,                                    !- Thermal Absorptance
  0.7,                                    !- Solar Absorptance
  0.7;                                    !- Visible Absorptance

OS:StandardsInformation:Material,
  {d4000255-c15c-48f8-a3ce-d5df0f24ddd8}, !- Handle
  {8ce52411-ca90-4513-922e-4e5e726f854e}; !- Material Name

OS:Material:NoMass,
  {cd68cd90-c54f-4cd4-b8f6-fe4335e785a5}, !- Handle
  Typical Insulation R-2.17 1,            !- Name
  Smooth,                                 !- Roughness
  0.381975016884895,                      !- Thermal Resistance {m2-K/W}
  0.9,                                    !- Thermal Absorptance
  0.7,                                    !- Solar Absorptance
  0.7;                                    !- Visible Absorptance

OS:StandardsInformation:Material,
  {d2542a4a-356d-49d1-b2a3-1d32d3f1ea8f}, !- Handle
  {cd68cd90-c54f-4cd4-b8f6-fe4335e785a5}; !- Material Name

OS:Rendering:Color,
  {04afa69d-efe4-4382-90d8-060eec7611cc}, !- Handle
  Rendering Color 347,                    !- Name
  139,                                    !- Rendering Red Value
  19,                                     !- Rendering Green Value
  69;                                     !- Rendering Blue Value

OS:WindowMaterial:Glazing,
  {f0091691-9158-44c2-afc2-a17da170fe43}, !- Handle
  REF A CLEAR LO 6MM 1,                   !- Name
  SpectralAverage,                        !- Optical Data Type
  ,                                       !- Window Glass Spectral Data Set Name
  0.00599999999999998,                    !- Thickness {m}
  0.066,                                  !- Solar Transmittance at Normal Incidence
  0.341,                                  !- Front Side Solar Reflectance at Normal Incidence
  0.493,                                  !- Back Side Solar Reflectance at Normal Incidence
  0.08,                                   !- Visible Transmittance at Normal Incidence
  0.41,                                   !- Front Side Visible Reflectance at Normal Incidence
  0.37,                                   !- Back Side Visible Reflectance at Normal Incidence
  0,                                      !- Infrared Transmittance at Normal Incidence
  0.84,                                   !- Front Side Infrared Hemispherical Emissivity
  0.4,                                    !- Back Side Infrared Hemispherical Emissivity
  0.9,                                    !- Conductivity {W/m-K}
  1,                                      !- Dirt Correction Factor for Solar and Visible Transmittance
  No;                                     !- Solar Diffusing

OS:StandardsInformation:Material,
  {72b242d1-2727-4041-b399-cec1ccec0e9b}, !- Handle
  {f0091691-9158-44c2-afc2-a17da170fe43}; !- Material Name

OS:Rendering:Color,
  {def145da-bb11-4b21-b39e-2d4ae81aaad2}, !- Handle
  Rendering Color 348,                    !- Name
  216,                                    !- Rendering Red Value
  216,                                    !- Rendering Green Value
  191;                                    !- Rendering Blue Value

OS:Rendering:Color,
  {b30feade-701a-4ad6-8c69-12a42ac7c13b}, !- Handle
  Rendering Color 349,                    !- Name
  233,                                    !- Rendering Red Value
  122,                                    !- Rendering Green Value
  150;                                    !- Rendering Blue Value

OS:WindowMaterial:Glazing,
  {9d8857bb-06c2-4a28-bcbd-f0bfd1a74e72}, !- Handle
  Clear 3mm 1,                            !- Name
  SpectralAverage,                        !- Optical Data Type
  ,                                       !- Window Glass Spectral Data Set Name
  0.00299999999999999,                    !- Thickness {m}
  0.837,                                  !- Solar Transmittance at Normal Incidence
  0.075,                                  !- Front Side Solar Reflectance at Normal Incidence
  0.075,                                  !- Back Side Solar Reflectance at Normal Incidence
  0.898,                                  !- Visible Transmittance at Normal Incidence
  0.081,                                  !- Front Side Visible Reflectance at Normal Incidence
  0.081,                                  !- Back Side Visible Reflectance at Normal Incidence
  0,                                      !- Infrared Transmittance at Normal Incidence
  0.84,                                   !- Front Side Infrared Hemispherical Emissivity
  0.84,                                   !- Back Side Infrared Hemispherical Emissivity